LAMMPS (2 Aug 2023 - Update 1)
# 2d rounded polygon bodies

variable    r     index 7
variable    steps index 200000
variable    T     index 1
variable    P     index 0.1

include ./seed.lammps
variable    seed  index 3241

units       lj
dimension   2

atom_style  body rounded/polygon 1 6
atom_modify map array
read_data   data.squares
Reading data file ...
  orthogonal box = (0 0 -0.5) to (6 6 0.5)
  reading atoms ...
  4 atoms
  4 bodies

replicate   $r $r 1
replicate   7 $r 1
replicate   7 7 1
Replication is creating a 7x7x1 = 49 times larger system...
  orthogonal box = (0 0 -0.5) to (42 42 0.5)
  196 atoms
  replicate CPU = 0.001 seconds
change_box all x final -21.0 21.0 y final -21.0 21.0
Changing box ...
  orthogonal box = (-21 0 -0.5) to (21 42 0.5)
  orthogonal box = (-21 -21 -0.5) to (21 21 0.5)

variable cut_inner  equal 0.0
variable k_n        equal 300
variable k_na       equal 0
variable c_n        equal 0
variable c_t        equal 0
variable mu         equal 0.0
variable delta_ua   equal 1.0

pair_style body/rounded/polygon 0 0 0 1 0
pair_coeff * * 300 0

comm_modify vel yes cutoff 12

neighbor     1.2 bin
neigh_modify every 1 delay 0 check yes

timestep     0.0001

fix          2 all enforce2d

# minimize 0.0 0 1000 100000

compute 10 all property/atom x y z quatw quati quatj quatk
dump mydump0 all custom 100 dump.quat id type c_10[1] c_10[2] c_10[3] c_10[4] c_10[5] c_10[6] c_10[7]
compute myRDF all rdf 1000 cutoff 10.0
compute 1 all temp/body
compute 1p all pressure 1
velocity    all create 1 3241 dist gaussian mom yes rot yes

thermo_style custom step temp ke pe etotal c_1 press c_1p vol
thermo       100
thermo_modify norm no

fix          1 all npt/body temp $T $T 0.01 x 1 1 0.1 y 1 1 0.1 couple xy
fix          1 all npt/body temp 1 $T 0.01 x 1 1 0.1 y 1 1 0.1 couple xy
fix          1 all npt/body temp 1 1 0.01 x 1 1 0.1 y 1 1 0.1 couple xy
run          200000
Generated 0 of 0 mixed pair_coeff terms from geometric mixing rule
Step          Temp          KinEng         PotEng         TotEng          c_1           Press           c_1p          Volume
0   1              195            0              195            0.66552901     0.11054422     0.11054422     1764
Averages over the last 1001 of 2001 rows, steps 100000 to 200000:
Temp KinEng PotEng TotEng c_1 Press c_1p Volume
0.990873 193.22 18.3332 211.554 0.999548 0.860607 0.999376 718.164
Loop time of 21.2347 on 4 procs for 200000 steps with 196 atoms

unfix 1

fix          1 all nve/body
dump mydump all custom 100 dump1.quat id type c_10[1] c_10[2] c_10[3] c_10[4] c_10[5] c_10[6] c_10[7]
fix 1rdf all ave/time 1 200000 200000 c_myRDF[*] file tmp1.rdf mode vector
run          200000
Generated 0 of 0 mixed pair_coeff terms from geometric mixing rule
Step          Temp          KinEng         PotEng         TotEng          c_1           Press           c_1p          Volume
200000   0.94074848     183.44595      17.625925      201.07188      0.97021361     0.80636277     0.94378519     733.69862
Averages over the last 1001 of 2001 rows, steps 300000 to 400000:
Temp KinEng PotEng TotEng c_1 Press c_1p Volume
0.97362 189.856 17.2134 207.069 0.971622 0.806463 0.935711 733.699
Loop time of 33.1931 on 4 procs for 200000 steps with 196 atoms

unfix 1
undump mydump
unfix 1rdf

fix          1 all npt/body temp $T $T 0.01 x 1 3 0.1 y 1 3 0.1 couple xy
fix          1 all npt/body temp 1 $T 0.01 x 1 3 0.1 y 1 3 0.1 couple xy
fix          1 all npt/body temp 1 1 0.01 x 1 3 0.1 y 1 3 0.1 couple xy
run          200000
Generated 0 of 0 mixed pair_coeff terms from geometric mixing rule
Step          Temp          KinEng         PotEng         TotEng          c_1           Press           c_1p          Volume
400000   0.92870862     181.09818      18.023085      199.12127      0.96885906     0.77069632     0.91077771     733.69862
Averages over the last 1001 of 2001 rows, steps 500000 to 600000:
Temp KinEng PotEng TotEng c_1 Press c_1p Volume
0.99596 194.212 44.645 238.857 0.999448 2.30873 2.49943 517.479
Loop time of 27.9032 on 4 procs for 200000 steps with 196 atoms

unfix 1

fix          1 all nve/body
dump mydump all custom 100 dump2.quat id type c_10[1] c_10[2] c_10[3] c_10[4] c_10[5] c_10[6] c_10[7]
fix 1rdf all ave/time 1 200000 200000 c_myRDF[*] file tmp2.rdf mode vector
run          200000
Generated 0 of 0 mixed pair_coeff terms from geometric mixing rule
Step          Temp          KinEng         PotEng         TotEng          c_1           Press           c_1p          Volume
600000   1.0018327      195.35737      53.262832      248.62021      0.98896564     3.0702967      3.2650129      484.85718
Averages over the last 1001 of 2001 rows, steps 700000 to 800000:
Temp KinEng PotEng TotEng c_1 Press c_1p Volume
0.986351 192.338 53.3798 245.718 0.988566 2.84593 3.04663 484.857
Loop time of 52.427 on 4 procs for 200000 steps with 196 atoms

unfix 1
undump mydump
unfix 1rdf

fix          1 all npt/body temp $T $T 0.01 x 3 6 0.1 y 3 6 0.1 couple xy
fix          1 all npt/body temp 1 $T 0.01 x 3 6 0.1 y 3 6 0.1 couple xy
fix          1 all npt/body temp 1 1 0.01 x 3 6 0.1 y 3 6 0.1 couple xy
run          200000
Generated 0 of 0 mixed pair_coeff terms from geometric mixing rule
Step          Temp          KinEng         PotEng         TotEng          c_1           Press           c_1p          Volume
800000   0.91840532     179.08904      60.708241      239.79728      0.96355435     2.9355462      3.1484591      484.85718
Averages over the last 1001 of 2001 rows, steps 900000 to 1000000:
Temp KinEng PotEng TotEng c_1 Press c_1p Volume
0.996223 194.263 92.8116 287.075 1.00029 5.01805 5.24835 429.113
Loop time of 38.1165 on 4 procs for 200000 steps with 196 atoms

unfix 1

fix          1 all nve/body
dump mydump all custom 100 dump3.quat id type c_10[1] c_10[2] c_10[3] c_10[4] c_10[5] c_10[6] c_10[7]
fix 1rdf all ave/time 1 200000 200000 c_myRDF[*] file tmp3.rdf mode vector
run          200000
Generated 0 of 0 mixed pair_coeff terms from geometric mixing rule
Step          Temp          KinEng         PotEng         TotEng          c_1           Press           c_1p          Volume
1000000   1.0047648      195.92914      96.778101      292.70724      1.0273631      5.5133327      5.7616996      423.11696
Averages over the last 1001 of 2001 rows, steps 1100000 to 1200000:
Temp KinEng PotEng TotEng c_1 Press c_1p Volume
1.01948 198.798 99.6588 298.457 1.01753 5.40163 5.63641 423.117
Loop time of 59.1621 on 4 procs for 200000 steps with 196 atoms

unfix 1
undump mydump
unfix 1rdf

fix          1 all npt/body temp $T $T 0.01 x 6 7 0.1 y 6 7 0.1 couple xy
fix          1 all npt/body temp 1 $T 0.01 x 6 7 0.1 y 6 7 0.1 couple xy
fix          1 all npt/body temp 1 1 0.01 x 6 7 0.1 y 6 7 0.1 couple xy
run          200000
Generated 0 of 0 mixed pair_coeff terms from geometric mixing rule
Step          Temp          KinEng         PotEng         TotEng          c_1           Press           c_1p          Volume
1200000   1.0688353      208.42288      101.01148      309.43436      1.0129132      5.5068043      5.7156371      423.11696
Averages over the last 1001 of 2001 rows, steps 1300000 to 1400000:
Temp KinEng PotEng TotEng c_1 Press c_1p Volume
0.999075 194.82 110.867 305.687 1.0014 6.5023 6.74984 398.283
Loop time of 43.5977 on 4 procs for 200000 steps with 196 atoms

unfix 1

fix          1 all nve/body
dump mydump all custom 100 dump4.quat id type c_10[1] c_10[2] c_10[3] c_10[4] c_10[5] c_10[6] c_10[7]
fix 1rdf all ave/time 1 200000 200000 c_myRDF[*] file tmp4.rdf mode vector
run          200000
Generated 0 of 0 mixed pair_coeff terms from geometric mixing rule
Step          Temp          KinEng         PotEng         TotEng          c_1           Press           c_1p          Volume
1400000   0.87125284     169.8943       133.76895      303.66325      0.95309765     7.3387661      7.6178391      391.88076
Averages over the last 1001 of 2001 rows, steps 1500000 to 1600000:
Temp KinEng PotEng TotEng c_1 Press c_1p Volume
0.995798 194.181 121.209 315.389 0.995967 7.07168 7.32083 391.881
Loop time of 66.3747 on 4 procs for 200000 steps with 196 atoms

unfix 1
undump mydump
unfix 1rdf

fix          1 all npt/body temp $T $T 0.01 x 7 8 0.1 y 7 8 0.1 couple xy
fix          1 all npt/body temp 1 $T 0.01 x 7 8 0.1 y 7 8 0.1 couple xy
fix          1 all npt/body temp 1 1 0.01 x 7 8 0.1 y 7 8 0.1 couple xy
run          200000
Generated 0 of 0 mixed pair_coeff terms from geometric mixing rule
Step          Temp          KinEng         PotEng         TotEng          c_1           Press           c_1p          Volume
1600000   0.92621415     180.61176      128.71808      309.32984      0.97033787     7.3666136      7.6312279      391.88076
Averages over the last 1001 of 2001 rows, steps 1700000 to 1800000:
Temp KinEng PotEng TotEng c_1 Press c_1p Volume
0.989933 193.037 127.912 320.948 1.00013 7.49104 7.74847 388.501
Loop time of 45.707 on 4 procs for 200000 steps with 196 atoms

unfix 1

fix          1 all nve/body
dump mydump all custom 100 dump5.quat id type c_10[1] c_10[2] c_10[3] c_10[4] c_10[5] c_10[6] c_10[7]
fix 1rdf all ave/time 1 200000 200000 c_myRDF[*] file tmp5.rdf mode vector
run          200000
Generated 0 of 0 mixed pair_coeff terms from geometric mixing rule
Step          Temp          KinEng         PotEng         TotEng          c_1           Press           c_1p          Volume
1800000   0.9066386      176.79453      123.51768      300.3122       0.98787723     7.3144139      7.6066629      385.47089
Averages over the last 1001 of 2001 rows, steps 1900000 to 2000000:
Temp KinEng PotEng TotEng c_1 Press c_1p Volume
0.96832 188.822 130.683 319.505 0.963421 7.73675 7.9792 385.471
Loop time of 67.5405 on 4 procs for 200000 steps with 196 atoms

unfix 1
undump mydump
unfix 1rdf

fix          1 all npt/body temp $T $T 0.01 x 8 10 0.1 y 8 10 0.1 couple xy
fix          1 all npt/body temp 1 $T 0.01 x 8 10 0.1 y 8 10 0.1 couple xy
fix          1 all npt/body temp 1 1 0.01 x 8 10 0.1 y 8 10 0.1 couple xy
run          200000
Generated 0 of 0 mixed pair_coeff terms from geometric mixing rule
Step          Temp          KinEng         PotEng         TotEng          c_1           Press           c_1p          Volume
2000000   1.0613775      206.96862      117.26113      324.22975      1.0092296      7.0170909      7.2472915      385.47089
Averages over the last 1001 of 2001 rows, steps 2100000 to 2200000:
Temp KinEng PotEng TotEng c_1 Press c_1p Volume
1.00787 196.534 160.882 357.416 1.00037 9.24201 9.49788 377.412
Loop time of 47.8506 on 4 procs for 200000 steps with 196 atoms

unfix 1

fix          1 all nve/body
dump mydump all custom 100 dump6.quat id type c_10[1] c_10[2] c_10[3] c_10[4] c_10[5] c_10[6] c_10[7]
fix 1rdf all ave/time 1 200000 200000 c_myRDF[*] file tmp6.rdf mode vector
run          200000
Generated 0 of 0 mixed pair_coeff terms from geometric mixing rule
Step          Temp          KinEng         PotEng         TotEng          c_1           Press           c_1p          Volume
2200000   0.95818395     186.84587      144.9256       331.77147      0.94428844     8.8614351      9.102823       372.14237
Averages over the last 1001 of 2001 rows, steps 2300000 to 2400000:
Temp KinEng PotEng TotEng c_1 Press c_1p Volume
0.89711 174.936 157.49 332.426 0.901405 9.50955 9.74918 372.142
Loop time of 71.8994 on 4 procs for 200000 steps with 196 atoms

unfix 1
undump mydump
unfix 1rdf
