LAMMPS (2 Aug 2023 - Update 1)
# 3d rounded 3d

variable    r     index 5
variable    steps index 100000

units       lj
dimension   3
newton on

neighbor     1.0 bin
neigh_modify every 1 delay 0 check yes

atom_style  body rounded/polyhedron 1 20

read_data   data.3d
Reading data file ...
  orthogonal box = (-1.59 -1.59 -1.59) to (1.59 1.59 1.59)
  reading atoms ...
  1 atoms
  1 bodies

replicate   $r $r $r
replicate   5 $r $r
replicate   5 5 $r
replicate   5 5 5
Replication is creating a 5x5x5 = 125 times larger system...
  orthogonal box = (-1.59 -1.59 -1.59) to (14.31 14.31 14.31)
  125 atoms
  replicate CPU = 0.002 seconds

change_box all x final -7.95 7.95 y final -7.95 7.95 z final -7.95 7.95
Changing box ...
  orthogonal box = (-7.95 -1.59 -1.59) to (7.95 14.31 14.31)
  orthogonal box = (-7.95 -7.95 -1.59) to (7.95 7.95 14.31)
  orthogonal box = (-7.95 -7.95 -7.95) to (7.95 7.95 7.95)

velocity all create 1.5 64 rot yes dist gaussian
set atom * quat/random 4325
Setting atom values ...
  125 settings made for quat/random

variable cut_inner  equal 0.0
variable k_n        equal 100000
variable k_na       equal 0
variable c_n        equal 0
variable c_t        equal 0
variable mu         equal 0
variable A_ua       equal 1

pair_style body/rounded/polyhedron 0 0 0 1 0
pair_coeff * * 100000 0

comm_modify vel yes

timestep     0.0001

compute 1 all temp/body
compute 1p all pressure 1

thermo_style custom step temp ke pe etotal c_1 press c_1p c_1p[1] c_1p[2] c_1p[3] vol

thermo       100
thermo_modify norm no

compute 10 all property/atom x y z quatw quati quatj quatk
dump mydump all custom 100 dump.quat id c_10[1] c_10[2] c_10[3] c_10[4] c_10[5] c_10[6] c_10[7]

fix def all deform 200000 x scale 0.95 y scale 0.95 z scale 0.95

fix          1 all nvt/body temp 0.75 0.75 0.01

variable i loop 10

label loop_start
    run          100000
Generated 0 of 0 mixed pair_coeff terms from geometric mixing rule
Step          Temp          KinEng         PotEng         TotEng          c_1           Press           c_1p         c_1p[1]        c_1p[2]        c_1p[3]         Volume
0   1.5            279            0              279            0.74698795     0.046272352    0.046272352    0.044966698    0.039397094    0.054453262    4019.679
Averages over the last 501 of 1001 rows, steps 50000 to 100000:
Temp KinEng PotEng TotEng c_1 Press c_1p c_1p[1] c_1p[2] c_1p[3] Volume
1.50715 280.33 0.548717 280.879 0.75055 0.0828482 0.0828482 0.0833145 0.0788379 0.0863924 4019.68
Loop time of 307.599 on 4 procs for 100000 steps with 125 atoms

    run          100000
Generated 0 of 0 mixed pair_coeff terms from geometric mixing rule
Step          Temp          KinEng         PotEng         TotEng          c_1           Press           c_1p         c_1p[1]        c_1p[2]        c_1p[3]         Volume
100000   1.7133028      318.67433      0.80416329     319.47849      0.85321106     0.11923168     0.11923168     0.18971629     0.06219717     0.10578159     4019.679
Averages over the last 501 of 1001 rows, steps 150000 to 200000:
Temp KinEng PotEng TotEng c_1 Press c_1p c_1p[1] c_1p[2] c_1p[3] Volume
1.5091 280.693 0.493453 281.187 0.751522 0.0795734 0.0795734 0.0858387 0.0724505 0.0804309 4018.53
Loop time of 309.556 on 4 procs for 100000 steps with 125 atoms

next i
jump SELF loop_start
    run          100000
Generated 0 of 0 mixed pair_coeff terms from geometric mixing rule
Step          Temp          KinEng         PotEng         TotEng          c_1           Press           c_1p         c_1p[1]        c_1p[2]        c_1p[3]         Volume
200000   1.5171144      282.18327      2297.7066      2579.8899      0.75551077     13.463548      13.463548      16.461458      11.825458      12.103727      3446.3723
Averages over the last 501 of 1001 rows, steps 250000 to 300000:
Temp KinEng PotEng TotEng c_1 Press c_1p c_1p[1] c_1p[2] c_1p[3] Volume
1.50813 280.512 0.753661 281.265 0.751035 0.111168 0.111168 0.111438 0.107495 0.11457 3446.37
Loop time of 322.188 on 4 procs for 100000 steps with 125 atoms

    run          100000
Generated 0 of 0 mixed pair_coeff terms from geometric mixing rule
Step          Temp          KinEng         PotEng         TotEng          c_1           Press           c_1p         c_1p[1]        c_1p[2]        c_1p[3]         Volume
300000   1.4405773      267.94738      0.23823347     268.18562      0.71739594     0.094010036    0.094010036    0.087006105    0.10253682     0.092487183    3446.3723
Averages over the last 501 of 1001 rows, steps 350000 to 400000:
Temp KinEng PotEng TotEng c_1 Press c_1p c_1p[1] c_1p[2] c_1p[3] Volume
1.50542 280.009 0.623944 280.633 0.749689 0.104056 0.104056 0.100492 0.109331 0.102344 3445.39
Loop time of 309.534 on 4 procs for 100000 steps with 125 atoms

next i
jump SELF loop_start
    run          100000
Generated 0 of 0 mixed pair_coeff terms from geometric mixing rule
Step          Temp          KinEng         PotEng         TotEng          c_1           Press           c_1p         c_1p[1]        c_1p[2]        c_1p[3]         Volume
400000   1.3995751      260.32096      4883.7988      5144.1198      0.69697713     27.954333      27.954333      23.906452      23.798078      36.158467      2954.8334
Averages over the last 501 of 1001 rows, steps 450000 to 500000:
Temp KinEng PotEng TotEng c_1 Press c_1p c_1p[1] c_1p[2] c_1p[3] Volume
1.50623 280.158 0.754914 280.913 0.750089 0.130717 0.130717 0.139354 0.125861 0.126935 2954.83
Loop time of 297.429 on 4 procs for 100000 steps with 125 atoms

    run          100000
Generated 0 of 0 mixed pair_coeff terms from geometric mixing rule
Step          Temp          KinEng         PotEng         TotEng          c_1           Press           c_1p         c_1p[1]        c_1p[2]        c_1p[3]         Volume
500000   1.4360724      267.10947      0              267.10947      0.71515253     0.06026498     0.06026498     0.06180916     0.06102713     0.057958652    2954.8334
Averages over the last 501 of 1001 rows, steps 550000 to 600000:
Temp KinEng PotEng TotEng c_1 Press c_1p c_1p[1] c_1p[2] c_1p[3] Volume
1.50665 280.238 0.8199 281.058 0.750302 0.136893 0.136893 0.131852 0.134298 0.144529 2953.99
Loop time of 293.15 on 4 procs for 100000 steps with 125 atoms

next i
jump SELF loop_start
    run          100000
Generated 0 of 0 mixed pair_coeff terms from geometric mixing rule
Step          Temp          KinEng         PotEng         TotEng          c_1           Press           c_1p         c_1p[1]        c_1p[2]        c_1p[3]         Volume
600000   1.4162465      263.42186      5070.4377      5333.8596      0.7052794      34.726632      34.726632      31.879165      34.005479      38.295253      2533.4003
Averages over the last 501 of 1001 rows, steps 650000 to 700000:
Temp KinEng PotEng TotEng c_1 Press c_1p c_1p[1] c_1p[2] c_1p[3] Volume
1.50447 279.831 0.833541 280.665 0.749213 0.169665 0.169665 0.170614 0.173305 0.165077 2533.4
Loop time of 292.239 on 4 procs for 100000 steps with 125 atoms

    run          100000
Generated 0 of 0 mixed pair_coeff terms from geometric mixing rule
Step          Temp          KinEng         PotEng         TotEng          c_1           Press           c_1p         c_1p[1]        c_1p[2]        c_1p[3]         Volume
700000   1.563856       290.87721      0.88368835     291.7609       0.77878772     0.23276213     0.23276213     0.27064601     0.25519094     0.17244943     2533.4003
Averages over the last 501 of 1001 rows, steps 750000 to 800000:
Temp KinEng PotEng TotEng c_1 Press c_1p c_1p[1] c_1p[2] c_1p[3] Volume
1.50571 280.061 0.905078 280.966 0.749829 0.173359 0.173359 0.186234 0.172054 0.16179 2532.68
Loop time of 284.98 on 4 procs for 100000 steps with 125 atoms

next i
jump SELF loop_start
    run          100000
Generated 0 of 0 mixed pair_coeff terms from geometric mixing rule
Step          Temp          KinEng         PotEng         TotEng          c_1           Press           c_1p         c_1p[1]        c_1p[2]        c_1p[3]         Volume
800000   1.5709976      292.20556      5825.4254      6117.631       0.78234421     48.272617      48.272617      51.886083      48.907805      44.023963      2172.0741
Averages over the last 501 of 1001 rows, steps 850000 to 900000:
Temp KinEng PotEng TotEng c_1 Press c_1p c_1p[1] c_1p[2] c_1p[3] Volume
1.50188 279.349 1.29325 280.642 0.747922 0.252481 0.252481 0.249843 0.249549 0.258051 2172.07
Loop time of 290.129 on 4 procs for 100000 steps with 125 atoms

    run          100000
Generated 0 of 0 mixed pair_coeff terms from geometric mixing rule
Step          Temp          KinEng         PotEng         TotEng          c_1           Press           c_1p         c_1p[1]        c_1p[2]        c_1p[3]         Volume
900000   1.4613686      271.81455      6.9639769      278.77853      0.72774981     0.70308607     0.70308607     0.51293127     1.0844143      0.51191266     2172.0741
Averages over the last 501 of 1001 rows, steps 950000 to 1000000:
Temp KinEng PotEng TotEng c_1 Press c_1p c_1p[1] c_1p[2] c_1p[3] Volume
1.50461 279.857 1.38598 281.243 0.749282 0.261143 0.261143 0.269167 0.259635 0.254628 2171.46
Loop time of 289.266 on 4 procs for 100000 steps with 125 atoms

next i
jump SELF loop_start
    run          100000
Generated 0 of 0 mixed pair_coeff terms from geometric mixing rule
Step          Temp          KinEng         PotEng         TotEng          c_1           Press           c_1p         c_1p[1]        c_1p[2]        c_1p[3]         Volume
1000000   1.622875       301.85475      6173.482       6475.3368      0.80817873     61.37186       61.37186       64.447986      54.847653      64.819942      1862.282
Averages over the last 501 of 1001 rows, steps 1050000 to 1100000:
Temp KinEng PotEng TotEng c_1 Press c_1p c_1p[1] c_1p[2] c_1p[3] Volume
1.50651 280.211 1.71465 281.926 0.750231 0.354734 0.354734 0.341491 0.362423 0.360288 1862.28
Loop time of 291.134 on 4 procs for 100000 steps with 125 atoms

    run          100000
Generated 0 of 0 mixed pair_coeff terms from geometric mixing rule
Step          Temp          KinEng         PotEng         TotEng          c_1           Press           c_1p         c_1p[1]        c_1p[2]        c_1p[3]         Volume
1100000   1.5043027      279.8003       7.8826943      287.683        0.74913067     0.92905914     0.92905914     0.36382127     1.4122871      1.0110691      1862.282
Averages over the last 501 of 1001 rows, steps 1150000 to 1200000:
Temp KinEng PotEng TotEng c_1 Press c_1p c_1p[1] c_1p[2] c_1p[3] Volume
1.50538 280 1.84345 281.843 0.749665 0.358858 0.358858 0.38532 0.351535 0.339719 1861.75
Loop time of 304.844 on 4 procs for 100000 steps with 125 atoms

next i
jump SELF loop_start
    run          100000
Generated 0 of 0 mixed pair_coeff terms from geometric mixing rule
Step          Temp          KinEng         PotEng         TotEng          c_1           Press           c_1p         c_1p[1]        c_1p[2]        c_1p[3]         Volume
1200000   1.4677029      272.99274      8312.6708      8585.6635      0.73090425     98.863241      98.863241      82.644849      105.10087      108.844        1596.6741
Averages over the last 501 of 1001 rows, steps 1250000 to 1300000:
Temp KinEng PotEng TotEng c_1 Press c_1p c_1p[1] c_1p[2] c_1p[3] Volume
1.51109 281.063 2.11904 283.182 0.752511 0.492586 0.492586 0.488901 0.491121 0.497735 1596.67
Loop time of 294.262 on 4 procs for 100000 steps with 125 atoms

    run          100000
Generated 0 of 0 mixed pair_coeff terms from geometric mixing rule
Step          Temp          KinEng         PotEng         TotEng          c_1           Press           c_1p         c_1p[1]        c_1p[2]        c_1p[3]         Volume
1300000   1.426318       265.29514      0              265.29514      0.71029489     0.1107699      0.1107699      0.11900507     0.10328309     0.11002154     1596.6741
Averages over the last 501 of 1001 rows, steps 1350000 to 1400000:
Temp KinEng PotEng TotEng c_1 Press c_1p c_1p[1] c_1p[2] c_1p[3] Volume
1.5078 280.45 2.32046 282.771 0.750871 0.520408 0.520408 0.512344 0.52374 0.525139 1596.22
Loop time of 290.328 on 4 procs for 100000 steps with 125 atoms

next i
jump SELF loop_start
    run          100000
Generated 0 of 0 mixed pair_coeff terms from geometric mixing rule
Step          Temp          KinEng         PotEng         TotEng          c_1           Press           c_1p         c_1p[1]        c_1p[2]        c_1p[3]         Volume
1400000   1.4916276      277.44274      11221.025      11498.468      0.74281859     154.71429      154.71429      94.592582      176.89306      192.65723      1368.9484
Averages over the last 501 of 1001 rows, steps 1450000 to 1500000:
Temp KinEng PotEng TotEng c_1 Press c_1p c_1p[1] c_1p[2] c_1p[3] Volume
1.50769 280.431 3.81585 284.246 0.750818 0.882092 0.882092 0.864567 0.929153 0.852555 1368.95
Loop time of 285.821 on 4 procs for 100000 steps with 125 atoms

    run          100000
Generated 0 of 0 mixed pair_coeff terms from geometric mixing rule
Step          Temp          KinEng         PotEng         TotEng          c_1           Press           c_1p         c_1p[1]        c_1p[2]        c_1p[3]         Volume
1500000   1.7243803      320.73473      1.7656273      322.50036      0.85872753     0.80382227     0.80382227     1.138637       0.48549311     0.78733672     1368.9484
Averages over the last 501 of 1001 rows, steps 1550000 to 1600000:
Temp KinEng PotEng TotEng c_1 Press c_1p c_1p[1] c_1p[2] c_1p[3] Volume
1.50757 280.407 3.44518 283.853 0.750756 0.845088 0.845088 0.84292 0.811844 0.880499 1368.56
Loop time of 281.267 on 4 procs for 100000 steps with 125 atoms

next i
jump SELF loop_start
    run          100000
Generated 0 of 0 mixed pair_coeff terms from geometric mixing rule
Step          Temp          KinEng         PotEng         TotEng          c_1           Press           c_1p         c_1p[1]        c_1p[2]        c_1p[3]         Volume
1600000   1.5701177      292.04189      18358.788      18650.83       0.78190599     280.70831      280.70831      301.32048      247.94833      292.85611      1173.7021
Averages over the last 501 of 1001 rows, steps 1650000 to 1700000:
Temp KinEng PotEng TotEng c_1 Press c_1p c_1p[1] c_1p[2] c_1p[3] Volume
1.50439 279.817 5.91117 285.728 0.749175 1.52718 1.52718 1.50299 1.53625 1.54231 1173.7
Loop time of 278.083 on 4 procs for 100000 steps with 125 atoms

    run          100000
Generated 0 of 0 mixed pair_coeff terms from geometric mixing rule
Step          Temp          KinEng         PotEng         TotEng          c_1           Press           c_1p         c_1p[1]        c_1p[2]        c_1p[3]         Volume
1700000   1.570003       292.02056      0.99274078     293.01331      0.7818489      0.60298102     0.60298102     0.78999562     0.37693912     0.6420083      1173.7021
Averages over the last 501 of 1001 rows, steps 1750000 to 1800000:
Temp KinEng PotEng TotEng c_1 Press c_1p c_1p[1] c_1p[2] c_1p[3] Volume
1.50658 280.223 5.58175 285.805 0.750262 1.44246 1.44246 1.41485 1.41957 1.49295 1173.37
Loop time of 262.162 on 4 procs for 100000 steps with 125 atoms

next i
jump SELF loop_start
    run          100000
Generated 0 of 0 mixed pair_coeff terms from geometric mixing rule
Step          Temp          KinEng         PotEng         TotEng          c_1           Press           c_1p         c_1p[1]        c_1p[2]        c_1p[3]         Volume
1800000   1.4989099      278.79724      27052.574      27331.371      0.74644508     488.43103      488.43103      460.34764      489.74779      515.19766      1006.3029
Averages over the last 501 of 1001 rows, steps 1850000 to 1900000:
Temp KinEng PotEng TotEng c_1 Press c_1p c_1p[1] c_1p[2] c_1p[3] Volume
1.50636 280.184 9.33803 289.522 0.750157 2.71384 2.71384 2.70321 2.71264 2.72568 1006.3
Loop time of 219.895 on 4 procs for 100000 steps with 125 atoms

    run          100000
Generated 0 of 0 mixed pair_coeff terms from geometric mixing rule
Step          Temp          KinEng         PotEng         TotEng          c_1           Press           c_1p         c_1p[1]        c_1p[2]        c_1p[3]         Volume
1900000   1.6070098      298.90382      4.6060452      303.50987      0.80027797     1.8604005      1.8604005      1.6598421      3.1307755      0.79058376     1006.3029
Averages over the last 501 of 1001 rows, steps 1950000 to 2000000:
Temp KinEng PotEng TotEng c_1 Press c_1p c_1p[1] c_1p[2] c_1p[3] Volume
1.5076 280.413 9.11932 289.532 0.750771 2.64267 2.64267 2.6135 2.64233 2.67218 1006.02
Loop time of 196.918 on 4 procs for 100000 steps with 125 atoms

next i
jump SELF loop_start
