LAMMPS (2 Aug 2023 - Update 1)
# 3d rounded 3d

variable    r     index 5
variable    steps index 100000

units       lj
dimension   3
newton on

neighbor     1.0 bin
neigh_modify every 1 delay 0 check yes

atom_style  body rounded/polyhedron 1 20

read_data   data.3d
Reading data file ...
  orthogonal box = (-2 -2 -2) to (2 2 2)
  reading atoms ...
  1 atoms
  1 bodies

replicate   $r $r $r
replicate   5 $r $r
replicate   5 5 $r
replicate   5 5 5
Replication is creating a 5x5x5 = 125 times larger system...
  orthogonal box = (-2 -2 -2) to (18 18 18)
  125 atoms
  replicate CPU = 0.002 seconds

change_box all x final -11 11 y final -11 11 z final -11 11
Changing box ...
  orthogonal box = (-11 -2 -2) to (11 18 18)
  orthogonal box = (-11 -11 -2) to (11 11 18)
  orthogonal box = (-11 -11 -11) to (11 11 11)

velocity all create 3 64 rot yes dist gaussian
set atom * quat/random 4325
Setting atom values ...
  125 settings made for quat/random

variable cut_inner  equal 0.0
variable k_n        equal 100000
variable k_na       equal 0
variable c_n        equal 0
variable c_t        equal 0
variable mu         equal 0
variable A_ua       equal 1

pair_style body/rounded/polyhedron 0 0 0 1 0
pair_coeff * * 100000 0

comm_modify vel yes

timestep     0.0001

compute 1 all temp/body
compute 1p all pressure 1

thermo_style custom step temp ke pe etotal c_1 press c_1p c_1p[1] c_1p[2] c_1p[3] vol

thermo       100
thermo_modify norm no

compute 10 all property/atom x y z quatw quati quatj quatk
dump mydump all custom 100 dump.quat id c_10[1] c_10[2] c_10[3] c_10[4] c_10[5] c_10[6] c_10[7]

fix def all deform 200000 x scale 0.95 y scale 0.95 z scale 0.95

fix          1 all nvt/body temp 1.5 1.5 0.01

# dump	     2 all image 1000 image.*.jpg type type # 	     zoom 1.5 adiam 1.5 body type 0 0 view 75 15

variable i loop 10

label loop_start
    run          100000
Generated 0 of 0 mixed pair_coeff terms from geometric mixing rule
Step          Temp          KinEng         PotEng         TotEng          c_1           Press           c_1p         c_1p[1]        c_1p[2]        c_1p[3]         Volume
0   3              558            0              558            1.4939759      0.034936138    0.034936138    0.033950356    0.029745242    0.041112817    10648
Averages over the last 501 of 1001 rows, steps 50000 to 100000:
Temp KinEng PotEng TotEng c_1 Press c_1p c_1p[1] c_1p[2] c_1p[3] Volume
1.45953 271.473 0.474186 271.947 1.50031 0.0364966 0.054584 0.0524021 0.054243 0.0571069 10648
Loop time of 1381.89 on 4 procs for 100000 steps with 125 atoms

    run          100000
Generated 0 of 0 mixed pair_coeff terms from geometric mixing rule
Step          Temp          KinEng         PotEng         TotEng          c_1           Press           c_1p         c_1p[1]        c_1p[2]        c_1p[3]         Volume
100000   1.4557007      270.76034      0.45965558     271.21999      1.572468       0.041269535    0.061088997    0.036599068    0.090110049    0.056557876    10648
Averages over the last 501 of 1001 rows, steps 150000 to 200000:
Temp KinEng PotEng TotEng c_1 Press c_1p c_1p[1] c_1p[2] c_1p[3] Volume
1.39383 259.253 0.420889 259.673 1.49788 0.0343932 0.0531949 0.0553136 0.0530542 0.0512169 10645
Loop time of 1363.28 on 4 procs for 100000 steps with 125 atoms

next i
jump SELF loop_start
    run          100000
Generated 0 of 0 mixed pair_coeff terms from geometric mixing rule
Step          Temp          KinEng         PotEng         TotEng          c_1           Press           c_1p         c_1p[1]        c_1p[2]        c_1p[3]         Volume
200000   1.4902944      277.19475      22282.391      22559.586      1.530963       44.729108      44.750623      32.844523      23.980922      77.426423      9129.329
Averages over the last 501 of 1001 rows, steps 250000 to 300000:
Temp KinEng PotEng TotEng c_1 Press c_1p c_1p[1] c_1p[2] c_1p[3] Volume
1.52442 283.542 0.522392 284.064 1.49875 0.0491153 0.0692879 0.0689322 0.0714741 0.0674573 9129.33
Loop time of 1736.93 on 4 procs for 100000 steps with 125 atoms

    run          100000
Generated 0 of 0 mixed pair_coeff terms from geometric mixing rule
Step          Temp          KinEng         PotEng         TotEng          c_1           Press           c_1p         c_1p[1]        c_1p[2]        c_1p[3]         Volume
300000   1.520204       282.75794      0.5483581      283.3063       1.5193188      0.070316409    0.091107103    0.069431084    0.126324       0.077566225    9129.329
Averages over the last 501 of 1001 rows, steps 350000 to 400000:
Temp KinEng PotEng TotEng c_1 Press c_1p c_1p[1] c_1p[2] c_1p[3] Volume
1.49135 277.391 0.543299 277.934 1.50466 0.0495597 0.0703494 0.0742786 0.0705503 0.0662192 9126.73
Loop time of 1625.99 on 4 procs for 100000 steps with 125 atoms

next i
jump SELF loop_start
    run          100000
Generated 0 of 0 mixed pair_coeff terms from geometric mixing rule
Step          Temp          KinEng         PotEng         TotEng          c_1           Press           c_1p         c_1p[1]        c_1p[2]        c_1p[3]         Volume
400000   1.4501746      269.73247      16535.52       16805.253      1.4770562      49.297923      49.321937      43.76837       57.448666      46.748776      7827.2585
Averages over the last 501 of 1001 rows, steps 450000 to 500000:
Temp KinEng PotEng TotEng c_1 Press c_1p c_1p[1] c_1p[2] c_1p[3] Volume
1.48661 276.51 0.666838 277.177 1.49877 0.0625619 0.0866895 0.0844641 0.0860644 0.0895401 7827.26
Loop time of 2088.4 on 4 procs for 100000 steps with 125 atoms

    run          100000
Generated 0 of 0 mixed pair_coeff terms from geometric mixing rule
Step          Temp          KinEng         PotEng         TotEng          c_1           Press           c_1p         c_1p[1]        c_1p[2]        c_1p[3]         Volume
500000   1.6593232      308.63412      0              308.63412      1.6106711      0.02628712     0.051238515    0.050240262    0.051135441    0.052339841    7827.2585
Averages over the last 501 of 1001 rows, steps 550000 to 600000:
Temp KinEng PotEng TotEng c_1 Press c_1p c_1p[1] c_1p[2] c_1p[3] Volume
1.51604 281.983 0.707981 282.691 1.5006 0.0653859 0.0891137 0.0856503 0.086599 0.0950919 7825.03
Loop time of 1943.9 on 4 procs for 100000 steps with 125 atoms

next i
jump SELF loop_start
    run          100000
Generated 0 of 0 mixed pair_coeff terms from geometric mixing rule
Step          Temp          KinEng         PotEng         TotEng          c_1           Press           c_1p         c_1p[1]        c_1p[2]        c_1p[3]         Volume
600000   1.5372535      285.92915      35631.464      35917.394      1.5316854      112.7624       112.79083      196.22074      81.832086      60.31966       6710.8957
Averages over the last 501 of 1001 rows, steps 650000 to 700000:
Temp KinEng PotEng TotEng c_1 Press c_1p c_1p[1] c_1p[2] c_1p[3] Volume
1.55747 289.689 0.927329 290.616 1.49962 0.0909931 0.117857 0.116817 0.116232 0.12052 6710.9
Loop time of 2451.1 on 4 procs for 100000 steps with 125 atoms

    run          100000
Generated 0 of 0 mixed pair_coeff terms from geometric mixing rule
Step          Temp          KinEng         PotEng         TotEng          c_1           Press           c_1p         c_1p[1]        c_1p[2]        c_1p[3]         Volume
700000   1.4229219      264.66347      0              264.66347      1.4578389      0.026291917    0.05409142     0.061894437    0.05254082     0.047839001    6710.8957
Averages over the last 501 of 1001 rows, steps 750000 to 800000:
Temp KinEng PotEng TotEng c_1 Press c_1p c_1p[1] c_1p[2] c_1p[3] Volume
1.54898 288.11 1.02557 289.135 1.50382 0.094494 0.12168 0.121257 0.122336 0.121448 6708.99
Loop time of 2382.11 on 4 procs for 100000 steps with 125 atoms

next i
jump SELF loop_start
    run          100000
Generated 0 of 0 mixed pair_coeff terms from geometric mixing rule
Step          Temp          KinEng         PotEng         TotEng          c_1           Press           c_1p         c_1p[1]        c_1p[2]        c_1p[3]         Volume
800000   1.5977796      297.187        62512.92       62810.107      1.5808909      192.5536       192.58758      157.37995      201.5612       218.82159      5753.7542
Averages over the last 501 of 1001 rows, steps 850000 to 900000:
Temp KinEng PotEng TotEng c_1 Press c_1p c_1p[1] c_1p[2] c_1p[3] Volume
1.50476 279.886 1.25439 281.14 1.50167 0.13242 0.164977 0.155531 0.16891 0.17049 5753.75
Loop time of 2912.52 on 4 procs for 100000 steps with 125 atoms

    run          100000
Generated 0 of 0 mixed pair_coeff terms from geometric mixing rule
Step          Temp          KinEng         PotEng         TotEng          c_1           Press           c_1p         c_1p[1]        c_1p[2]        c_1p[3]         Volume
900000   1.6126568      299.95417      0.21534269     300.16952      1.6176541      0.066595193    0.10184634     0.083163034    0.15073596     0.071640022    5753.7542
Averages over the last 501 of 1001 rows, steps 950000 to 1000000:
Temp KinEng PotEng TotEng c_1 Press c_1p c_1p[1] c_1p[2] c_1p[3] Volume
1.56617 291.307 1.24878 292.556 1.50125 0.134333 0.16556 0.167668 0.167177 0.161836 5752.12
Loop time of 2953.14 on 4 procs for 100000 steps with 125 atoms

next i
jump SELF loop_start
    run          100000
Generated 0 of 0 mixed pair_coeff terms from geometric mixing rule
Step          Temp          KinEng         PotEng         TotEng          c_1           Press           c_1p         c_1p[1]        c_1p[2]        c_1p[3]         Volume
1000000   1.5414197      286.70406      70953.27       71239.974      1.5647501      282.37728      282.41752      324.07484      273.8568       249.3209       4933.125
Averages over the last 501 of 1001 rows, steps 1050000 to 1100000:
Temp KinEng PotEng TotEng c_1 Press c_1p c_1p[1] c_1p[2] c_1p[3] Volume
1.5005 279.094 1.69226 280.786 1.50158 0.197153 0.235228 0.230374 0.239942 0.235369 4933.12
Loop time of 3726.91 on 4 procs for 100000 steps with 125 atoms

    run          100000
Generated 0 of 0 mixed pair_coeff terms from geometric mixing rule
Step          Temp          KinEng         PotEng         TotEng          c_1           Press           c_1p         c_1p[1]        c_1p[2]        c_1p[3]         Volume
1100000   1.5529061      288.84053      2.9003517      291.74088      1.4369141      0.42706587     0.46056011     0.84801443     0.16340319     0.3702627      4933.125
Averages over the last 501 of 1001 rows, steps 1150000 to 1200000:
Temp KinEng PotEng TotEng c_1 Press c_1p c_1p[1] c_1p[2] c_1p[3] Volume
1.50626 280.165 1.81251 281.978 1.49903 0.203645 0.241459 0.240943 0.24744 0.235994 4931.72
Loop time of 3259.62 on 4 procs for 100000 steps with 125 atoms

next i
jump SELF loop_start
    run          100000
Generated 0 of 0 mixed pair_coeff terms from geometric mixing rule
Step          Temp          KinEng         PotEng         TotEng          c_1           Press           c_1p         c_1p[1]        c_1p[2]        c_1p[3]         Volume
1200000   1.7416332      323.94377      56687.25       57011.194      1.6166058      270.72536      270.76948      237.5263       325.15542      249.62671      4229.5381
Averages over the last 501 of 1001 rows, steps 1250000 to 1300000:
Temp KinEng PotEng TotEng c_1 Press c_1p c_1p[1] c_1p[2] c_1p[3] Volume
1.47196 273.784 2.46877 276.252 1.49697 0.308865 0.35384 0.361949 0.35497 0.344602 4229.54
Loop time of 3283.24 on 4 procs for 100000 steps with 125 atoms

    run          100000
Generated 0 of 0 mixed pair_coeff terms from geometric mixing rule
Step          Temp          KinEng         PotEng         TotEng          c_1           Press           c_1p         c_1p[1]        c_1p[2]        c_1p[3]         Volume
1300000   1.3544146      251.92111      5.9178195      257.83893      1.4573627      0.40704        0.45312917     0.14738583     1.1164816      0.095520097    4229.5381
Averages over the last 501 of 1001 rows, steps 1350000 to 1400000:
Temp KinEng PotEng TotEng c_1 Press c_1p c_1p[1] c_1p[2] c_1p[3] Volume
1.50589 280.095 2.58967 282.685 1.49987 0.320489 0.364658 0.370547 0.376483 0.346943 4228.33
Loop time of 3763.59 on 4 procs for 100000 steps with 125 atoms

next i
jump SELF loop_start
    run          100000
Generated 0 of 0 mixed pair_coeff terms from geometric mixing rule
Step          Temp          KinEng         PotEng         TotEng          c_1           Press           c_1p         c_1p[1]        c_1p[2]        c_1p[3]         Volume
1400000   1.5645511      291.0065       133440.31      133731.31      1.670942       693.13715      693.19839      680.02008      623.54725      776.02783      3626.3002
Averages over the last 501 of 1001 rows, steps 1450000 to 1500000:
Temp KinEng PotEng TotEng c_1 Press c_1p c_1p[1] c_1p[2] c_1p[3] Volume
1.50041 279.076 3.88521 282.962 1.50004 0.520836 0.57253 0.569241 0.576259 0.572091 3626.3
Loop time of 4978.81 on 4 procs for 100000 steps with 125 atoms

    run          100000
Generated 0 of 0 mixed pair_coeff terms from geometric mixing rule
Step          Temp          KinEng         PotEng         TotEng          c_1           Press           c_1p         c_1p[1]        c_1p[2]        c_1p[3]         Volume
1500000   1.3747705      255.7073       8.4830101      264.19032      1.4401637      0.75679232     0.80867143     0.5587879      1.6199128      0.24731363     3626.3002
Averages over the last 501 of 1001 rows, steps 1550000 to 1600000:
Temp KinEng PotEng TotEng c_1 Press c_1p c_1p[1] c_1p[2] c_1p[3] Volume
1.49377 277.841 4.0482 281.889 1.50311 0.541817 0.59397 0.600402 0.593494 0.588013 3625.27
Loop time of 4631.75 on 4 procs for 100000 steps with 125 atoms

next i
jump SELF loop_start
    run          100000
Generated 0 of 0 mixed pair_coeff terms from geometric mixing rule
Step          Temp          KinEng         PotEng         TotEng          c_1           Press           c_1p         c_1p[1]        c_1p[2]        c_1p[3]         Volume
1600000   1.5585628      289.89269      170478.02      170767.91      1.6606148      1028.8471      1028.9179      1066.2668      1114.1247      906.36235      3109.0991
Averages over the last 501 of 1001 rows, steps 1650000 to 1700000:
Temp KinEng PotEng TotEng c_1 Press c_1p c_1p[1] c_1p[2] c_1p[3] Volume
1.49529 278.123 6.29145 284.415 1.50081 0.907172 0.967731 0.942388 0.985916 0.97489 3109.1
Loop time of 5495.54 on 4 procs for 100000 steps with 125 atoms

    run          100000
Generated 0 of 0 mixed pair_coeff terms from geometric mixing rule
Step          Temp          KinEng         PotEng         TotEng          c_1           Press           c_1p         c_1p[1]        c_1p[2]        c_1p[3]         Volume
1700000   1.8210208      338.70987      4.2619308      342.9718       1.6195575      0.76156184     0.8186405      0.6381958      1.0645676      0.75315808     3109.0991
Averages over the last 501 of 1001 rows, steps 1750000 to 1800000:
Temp KinEng PotEng TotEng c_1 Press c_1p c_1p[1] c_1p[2] c_1p[3] Volume
1.51917 282.565 6.13345 288.699 1.50077 0.920998 0.980624 0.966479 0.977924 0.997469 3108.21
Loop time of 6608.59 on 4 procs for 100000 steps with 125 atoms

next i
jump SELF loop_start
    run          100000
Generated 0 of 0 mixed pair_coeff terms from geometric mixing rule
Step          Temp          KinEng         PotEng         TotEng          c_1           Press           c_1p         c_1p[1]        c_1p[2]        c_1p[3]         Volume
1800000   1.4823426      275.71572      193841.92      194117.63      1.546711       1515.0358      1515.1114      1731.9066      1372.5548      1440.8727      2665.6639
Averages over the last 501 of 1001 rows, steps 1850000 to 1900000:
Temp KinEng PotEng TotEng c_1 Press c_1p c_1p[1] c_1p[2] c_1p[3] Volume
1.49138 277.397 10.8653 288.262 1.50221 1.75204 1.82299 1.85138 1.78885 1.82873 2665.66
Loop time of 6809.12 on 4 procs for 100000 steps with 125 atoms

    run          100000
Generated 0 of 0 mixed pair_coeff terms from geometric mixing rule
Step          Temp          KinEng         PotEng         TotEng          c_1           Press           c_1p         c_1p[1]        c_1p[2]        c_1p[3]         Volume
1900000   1.5411807      286.65962      11.194183      297.8538       1.5808508      2.0116039      2.0875795      2.121913       2.3144363      1.8263892      2665.6639
Averages over the last 501 of 1001 rows, steps 1950000 to 2000000:
Temp KinEng PotEng TotEng c_1 Press c_1p c_1p[1] c_1p[2] c_1p[3] Volume
1.49916 278.844 9.77553 288.62 1.49961 1.62418 1.69454 1.68288 1.69673 1.70401 2664.91
Loop time of 7143.89 on 4 procs for 100000 steps with 125 atoms

next i
jump SELF loop_start
