LAMMPS (22 Jul 2025)
# 3d rounded 3d

variable    r     index 10
variable    steps index 100000

units       lj
dimension   3
newton on

neighbor     1.0 bin
neigh_modify every 100 delay 0 check yes

atom_style  body rounded/polyhedron 1 30

read_data   data.3d
Reading data file ...
  orthogonal box = (-1 -1 -1) to (1 1 1)
  reading atoms ...
  1 atoms
  1 bodies

replicate   $r $r $r
replicate   10 $r $r
replicate   10 10 $r
replicate   10 10 10
Replication is creating a 10x10x10 = 1000 times larger system...
  orthogonal box = (-1 -1 -1) to (19 19 19)
  1000 atoms
  replicate CPU = 0.001 seconds

change_box all x final -10 10 y final -10 10 z final -10 10
Changing box ...
  orthogonal box = (-10 -1 -1) to (10 19 19)
  orthogonal box = (-10 -10 -1) to (10 10 19)
  orthogonal box = (-10 -10 -10) to (10 10 10)

velocity all create 3 1888 rot yes dist gaussian
set atom * quat/random 6741
Setting atom values ...
  1000 settings made for quat/random

variable cut_inner  equal 0.0
variable k_n        equal 500
variable k_na       equal 0
variable c_n        equal 0
variable c_t        equal 0
variable mu         equal 0
variable A_ua       equal 1

pair_style body/rounded/polyhedron 0 0 0 1 0
pair_coeff * * 500 0

comm_modify vel yes

timestep     0.0001

compute 1 all temp/body
compute 1p all pressure 1
fix          1 all npt/body temp 1.5 1.5 0.01 iso 1.0 20 0.1

thermo_style custom step temp ke pe etotal c_1 press c_1p vol

thermo       1000
thermo_modify norm no

compute 10 all property/atom x y z quatw quati quatj quatk
dump mydump all custom 1000 dump.quat id c_10[1] c_10[2] c_10[3] c_10[4] c_10[5] c_10[6] c_10[7]

run          5000000
Generated 0 of 0 mixed pair_coeff terms from geometric mixing rule
Step          Temp          KinEng         PotEng         TotEng          c_1           Press           c_1p          Volume
0   3              4495.5         0              4495.5         1.4992496      0.374625       0.374625       8000
Averages over the last 2501 of 5001 rows, steps 2500000 to 5000000:
Temp KinEng PotEng TotEng c_1 Press c_1p Volume
1.49946 2246.95 1201.43 3448.38 1.49918 14.7158 15.2583 2781.68
Loop time of 210855 on 64 procs for 5000000 steps with 1000 atoms

write_restart restart.1
System init for write_restart ...
Generated 0 of 0 mixed pair_coeff terms from geometric mixing rule
unfix 1

fix          1 all npt/body temp 1.5 1.5 0.01 iso 20 20 0.1
run 200000
Generated 0 of 0 mixed pair_coeff terms from geometric mixing rule
Step          Temp          KinEng         PotEng         TotEng          c_1           Press           c_1p          Volume
5000000   1.4706447      2203.7611      1364.712       3568.4731      1.4722741      19.272433      19.857229      2520.3704
Averages over the last 101 of 201 rows, steps 5100000 to 5200000:
Temp KinEng PotEng TotEng c_1 Press c_1p Volume
1.50158 2250.11 1417.44 3667.55 1.5013 19.4344 20.0326 2508.98
Loop time of 9710.9 on 64 procs for 200000 steps with 1000 atoms

write_restart restart.2
System init for write_restart ...
Generated 0 of 0 mixed pair_coeff terms from geometric mixing rule
unfix 1

fix          1 all nve/body
write_restart restart.3
System init for write_restart ...
Generated 0 of 0 mixed pair_coeff terms from geometric mixing rule
run          200000
Generated 0 of 0 mixed pair_coeff terms from geometric mixing rule
Step          Temp          KinEng         PotEng         TotEng          c_1           Press           c_1p          Volume
5200000   1.4305747      2143.7163      1423.8709      3567.5871      1.4558185      19.53465       20.12505       2508.5326
Averages over the last 101 of 201 rows, steps 5300000 to 5400000:
Temp KinEng PotEng TotEng c_1 Press c_1p Volume
1.48095 2219.21 1364.61 3583.82 1.47562 18.9511 19.5372 2508.53
Loop time of 9832.41 on 64 procs for 200000 steps with 1000 atoms
