LAMMPS (2 Aug 2023 - Update 1)
# 2d rounded polygon bodies

variable    r     index 7
variable    steps index 200000
variable    T     index 1
variable    P     index 0.1

include ./seed.lammps
variable    seed  index 3241

units       lj
dimension   2

atom_style  body rounded/polygon 1 6
atom_modify map array
read_data   data.squares
Reading data file ...
  orthogonal box = (0 0 -0.5) to (6 6 0.5)
  reading atoms ...
  4 atoms
  4 bodies

replicate   $r $r 1
replicate   7 $r 1
replicate   7 7 1
Replication is creating a 7x7x1 = 49 times larger system...
  orthogonal box = (0 0 -0.5) to (42 42 0.5)
  196 atoms
  replicate CPU = 0.001 seconds
change_box all x final -21.0 21.0 y final -21.0 21.0
Changing box ...
  orthogonal box = (-21 0 -0.5) to (21 42 0.5)
  orthogonal box = (-21 -21 -0.5) to (21 21 0.5)

variable cut_inner  equal 0.0
variable k_n        equal 300
variable k_na       equal 0
variable c_n        equal 0
variable c_t        equal 0
variable mu         equal 0.0
variable delta_ua   equal 1.0

pair_style body/rounded/polygon 0 0 0 1 0
pair_coeff * * 300 0

comm_modify vel yes cutoff 12

neighbor     1.2 bin
neigh_modify every 1 delay 0 check yes

timestep     0.0001

fix          2 all enforce2d

# minimize 0.0 0 1000 100000

compute 10 all property/atom x y z quatw quati quatj quatk
dump mydump0 all custom 100 dump.quat id type c_10[1] c_10[2] c_10[3] c_10[4] c_10[5] c_10[6] c_10[7]
compute myRDF all rdf 1000 cutoff 10.0
compute 1 all temp/body
compute 1p all pressure 1
velocity    all create 1 3241 dist gaussian mom yes rot yes

thermo_style custom step temp ke pe etotal c_1 press c_1p vol
thermo       100
thermo_modify norm no

fix          1 all npt/body temp $T $T 0.01 x 1 1 0.1 y 1 1 0.1 couple xy
fix          1 all npt/body temp 1 $T 0.01 x 1 1 0.1 y 1 1 0.1 couple xy
fix          1 all npt/body temp 1 1 0.01 x 1 1 0.1 y 1 1 0.1 couple xy
run          200000
Generated 0 of 0 mixed pair_coeff terms from geometric mixing rule
Step          Temp          KinEng         PotEng         TotEng          c_1           Press           c_1p          Volume
0   1              195            0              195            0.66552901     0.11054422     0.11054422     1764
Averages over the last 1001 of 2001 rows, steps 100000 to 200000:
Temp KinEng PotEng TotEng c_1 Press c_1p Volume
0.984366 191.951 22.8684 214.82 0.999913 0.868432 0.998839 774.848
Loop time of 21.2074 on 4 procs for 200000 steps with 196 atoms

unfix 1

fix          1 all nve/body
dump mydump all custom 100 dump1.quat id type c_10[1] c_10[2] c_10[3] c_10[4] c_10[5] c_10[6] c_10[7]
fix 1rdf all ave/time 1 200000 200000 c_myRDF[*] file tmp1.rdf mode vector
run          200000
Generated 0 of 0 mixed pair_coeff terms from geometric mixing rule
Step          Temp          KinEng         PotEng         TotEng          c_1           Press           c_1p          Volume
200000   0.98644796     192.35735      18.946315      211.30367      1.0781817      0.73822133     0.89364418     794.92749
Averages over the last 1001 of 2001 rows, steps 300000 to 400000:
Temp KinEng PotEng TotEng c_1 Press c_1p Volume
1.0624 207.168 22.9006 230.068 1.06469 0.854383 0.986201 794.927
Loop time of 30.5393 on 4 procs for 200000 steps with 196 atoms

unfix 1
undump mydump
unfix 1rdf

fix          1 all npt/body temp $T $T 0.01 x 1 3 0.1 y 1 3 0.1 couple xy
fix          1 all npt/body temp 1 $T 0.01 x 1 3 0.1 y 1 3 0.1 couple xy
fix          1 all npt/body temp 1 1 0.01 x 1 3 0.1 y 1 3 0.1 couple xy
run          200000
Generated 0 of 0 mixed pair_coeff terms from geometric mixing rule
Step          Temp          KinEng         PotEng         TotEng          c_1           Press           c_1p          Volume
400000   0.99229086     193.49672      30.008567      223.50529      1.0404263      1.0014995      1.1415729      794.92749
Averages over the last 1001 of 2001 rows, steps 500000 to 600000:
Temp KinEng PotEng TotEng c_1 Press c_1p Volume
1.00017 195.034 54.7588 249.793 1.00207 2.32074 2.49892 554.546
Loop time of 26.2281 on 4 procs for 200000 steps with 196 atoms

unfix 1

fix          1 all nve/body
dump mydump all custom 100 dump2.quat id type c_10[1] c_10[2] c_10[3] c_10[4] c_10[5] c_10[6] c_10[7]
fix 1rdf all ave/time 1 200000 200000 c_myRDF[*] file tmp2.rdf mode vector
run          200000
Generated 0 of 0 mixed pair_coeff terms from geometric mixing rule
Step          Temp          KinEng         PotEng         TotEng          c_1           Press           c_1p          Volume
600000   0.9129427      178.02383      70.810426      248.83425      0.98270784     2.8416225      3.048875       530.31715
Averages over the last 1001 of 2001 rows, steps 700000 to 800000:
Temp KinEng PotEng TotEng c_1 Press c_1p Volume
1.01114 197.172 62.3401 259.512 1.01161 2.6694 2.85651 530.317
Loop time of 45.805 on 4 procs for 200000 steps with 196 atoms

unfix 1
undump mydump
unfix 1rdf

fix          1 all npt/body temp $T $T 0.01 x 3 6 0.1 y 3 6 0.1 couple xy
fix          1 all npt/body temp 1 $T 0.01 x 3 6 0.1 y 3 6 0.1 couple xy
fix          1 all npt/body temp 1 1 0.01 x 3 6 0.1 y 3 6 0.1 couple xy
run          200000
Generated 0 of 0 mixed pair_coeff terms from geometric mixing rule
Step          Temp          KinEng         PotEng         TotEng          c_1           Press           c_1p          Volume
800000   1.0083788      196.63386      58.772048      255.40591      1.0237904      2.7436935      2.9385518      530.31715
Averages over the last 1001 of 2001 rows, steps 900000 to 1000000:
Temp KinEng PotEng TotEng c_1 Press c_1p Volume
1.00462 195.902 109.44 305.342 1.00232 5.03169 5.25004 447.894
Loop time of 35.7054 on 4 procs for 200000 steps with 196 atoms

unfix 1

fix          1 all nve/body
dump mydump all custom 100 dump3.quat id type c_10[1] c_10[2] c_10[3] c_10[4] c_10[5] c_10[6] c_10[7]
fix 1rdf all ave/time 1 200000 200000 c_myRDF[*] file tmp3.rdf mode vector
run          200000
Generated 0 of 0 mixed pair_coeff terms from geometric mixing rule
Step          Temp          KinEng         PotEng         TotEng          c_1           Press           c_1p          Volume
1000000   0.97088215     189.32202      125.68699      315.00901      0.98306693     5.9382459      6.1690817      427.6485
Averages over the last 1001 of 2001 rows, steps 1100000 to 1200000:
Temp KinEng PotEng TotEng c_1 Press c_1p Volume
0.986723 192.411 123.945 316.356 0.989014 5.85456 6.08225 427.649
Loop time of 56.1755 on 4 procs for 200000 steps with 196 atoms

unfix 1
undump mydump
unfix 1rdf

fix          1 all npt/body temp $T $T 0.01 x 6 7 0.1 y 6 7 0.1 couple xy
fix          1 all npt/body temp 1 $T 0.01 x 6 7 0.1 y 6 7 0.1 couple xy
fix          1 all npt/body temp 1 1 0.01 x 6 7 0.1 y 6 7 0.1 couple xy
run          200000
Generated 0 of 0 mixed pair_coeff terms from geometric mixing rule
Step          Temp          KinEng         PotEng         TotEng          c_1           Press           c_1p          Volume
1200000   0.96781035     188.72302      124.16814      312.89116      0.988253       5.7064633      5.942253       427.6485
Averages over the last 1001 of 2001 rows, steps 1300000 to 1400000:
Temp KinEng PotEng TotEng c_1 Press c_1p Volume
1.00911 196.777 138.513 335.289 1.00039 6.5186 6.74916 417.893
Loop time of 38.4787 on 4 procs for 200000 steps with 196 atoms

unfix 1

fix          1 all nve/body
dump mydump all custom 100 dump4.quat id type c_10[1] c_10[2] c_10[3] c_10[4] c_10[5] c_10[6] c_10[7]
fix 1rdf all ave/time 1 200000 200000 c_myRDF[*] file tmp4.rdf mode vector
run          200000
Generated 0 of 0 mixed pair_coeff terms from geometric mixing rule
Step          Temp          KinEng         PotEng         TotEng          c_1           Press           c_1p          Volume
1400000   1.0572145      206.15683      145.3088       351.46563      1.0188536      7.183853       7.4112914      406.12003
Averages over the last 1001 of 2001 rows, steps 1500000 to 1600000:
Temp KinEng PotEng TotEng c_1 Press c_1p Volume
1.03238 201.315 142.051 343.365 1.02998 6.87907 7.12646 406.12
Loop time of 59.0974 on 4 procs for 200000 steps with 196 atoms

unfix 1
undump mydump
unfix 1rdf

fix          1 all npt/body temp $T $T 0.01 x 7 8 0.1 y 7 8 0.1 couple xy
fix          1 all npt/body temp 1 $T 0.01 x 7 8 0.1 y 7 8 0.1 couple xy
fix          1 all npt/body temp 1 1 0.01 x 7 8 0.1 y 7 8 0.1 couple xy
run          200000
Generated 0 of 0 mixed pair_coeff terms from geometric mixing rule
Step          Temp          KinEng         PotEng         TotEng          c_1           Press           c_1p          Volume
1600000   1.0007476      195.14579      148.34933      343.49512      1.0084753      6.6021424      6.849206       406.12003
Averages over the last 1001 of 2001 rows, steps 1700000 to 1800000:
Temp KinEng PotEng TotEng c_1 Press c_1p Volume
1.00319 195.623 151.593 347.215 1.00038 7.50243 7.74873 395.807
Loop time of 40.0306 on 4 procs for 200000 steps with 196 atoms

unfix 1

fix          1 all nve/body
dump mydump all custom 100 dump5.quat id type c_10[1] c_10[2] c_10[3] c_10[4] c_10[5] c_10[6] c_10[7]
fix 1rdf all ave/time 1 200000 200000 c_myRDF[*] file tmp5.rdf mode vector
run          200000
Generated 0 of 0 mixed pair_coeff terms from geometric mixing rule
Step          Temp          KinEng         PotEng         TotEng          c_1           Press           c_1p          Volume
1800000   1.0572506      206.16388      163.05893      369.2228       1.0681785      7.8860699      8.1571946      393.96055
Averages over the last 1001 of 2001 rows, steps 1900000 to 2000000:
Temp KinEng PotEng TotEng c_1 Press c_1p Volume
1.07384 209.399 162.701 372.1 1.0694 7.9007 8.16452 393.961
Loop time of 59.8558 on 4 procs for 200000 steps with 196 atoms

unfix 1
undump mydump
unfix 1rdf

fix          1 all npt/body temp $T $T 0.01 x 8 10 0.1 y 8 10 0.1 couple xy
fix          1 all npt/body temp 1 $T 0.01 x 8 10 0.1 y 8 10 0.1 couple xy
fix          1 all npt/body temp 1 1 0.01 x 8 10 0.1 y 8 10 0.1 couple xy
run          200000
Generated 0 of 0 mixed pair_coeff terms from geometric mixing rule
Step          Temp          KinEng         PotEng         TotEng          c_1           Press           c_1p          Volume
2000000   1.0575044      206.21336      174.34076      380.55412      1.0296729      8.3338612      8.5762225      393.96055
Averages over the last 1001 of 2001 rows, steps 2100000 to 2200000:
Temp KinEng PotEng TotEng c_1 Press c_1p Volume
1.00732 196.428 183.833 380.261 1.00076 9.24403 9.49834 380.654
Loop time of 41.159 on 4 procs for 200000 steps with 196 atoms

unfix 1

fix          1 all nve/body
dump mydump all custom 100 dump6.quat id type c_10[1] c_10[2] c_10[3] c_10[4] c_10[5] c_10[6] c_10[7]
fix 1rdf all ave/time 1 200000 200000 c_myRDF[*] file tmp6.rdf mode vector
run          200000
Generated 0 of 0 mixed pair_coeff terms from geometric mixing rule
Step          Temp          KinEng         PotEng         TotEng          c_1           Press           c_1p          Volume
2200000   0.91411036     178.25152      179.83093      358.08245      0.98383208     9.4575467      9.7497519      376.48637
Averages over the last 1001 of 2001 rows, steps 2300000 to 2400000:
Temp KinEng PotEng TotEng c_1 Press c_1p Volume
0.97686 190.488 179.707 370.194 0.984256 9.23943 9.49947 376.486
Loop time of 62.2404 on 4 procs for 200000 steps with 196 atoms

unfix 1
undump mydump
unfix 1rdf
