LAMMPS (2 Aug 2023 - Update 1)
# 2d rounded polygon bodies

variable    r     index 7
variable    steps index 200000
variable    T     index 1
variable    P     index 0.1

include ./seed.lammps
variable    seed  index 3241

units       lj
dimension   2

atom_style  body rounded/polygon 1 6
atom_modify map array
read_data   data.2d
Reading data file ...
  orthogonal box = (0 0 -0.5) to (6 6 0.5)
  reading atoms ...
  4 atoms
  4 bodies

replicate   $r $r 1
replicate   7 $r 1
replicate   7 7 1
Replication is creating a 7x7x1 = 49 times larger system...
  orthogonal box = (0 0 -0.5) to (42 42 0.5)
  196 atoms
  replicate CPU = 0.001 seconds
change_box all x final -21.0 21.0 y final -21.0 21.0
Changing box ...
  orthogonal box = (-21 0 -0.5) to (21 42 0.5)
  orthogonal box = (-21 -21 -0.5) to (21 21 0.5)

variable cut_inner  equal 0.0
variable k_n        equal 300
variable k_na       equal 0
variable c_n        equal 0
variable c_t        equal 0
variable mu         equal 0.0
variable delta_ua   equal 1.0

pair_style body/rounded/polygon 0 0 0 1 0
pair_coeff * * 300 0

comm_modify vel yes cutoff 12

neighbor     1.2 bin
neigh_modify every 1 delay 0 check yes

timestep     0.0001

fix          2 all enforce2d

# minimize 0.0 0 1000 100000

compute 10 all property/atom x y z quatw quati quatj quatk
dump mydump0 all custom 100 dump.quat id type c_10[1] c_10[2] c_10[3] c_10[4] c_10[5] c_10[6] c_10[7]
compute myRDF all rdf 1000 cutoff 10.0
compute 1 all temp/body
compute 1p all pressure 1
velocity    all create 1 3241 dist gaussian mom yes rot yes

thermo_style custom step temp ke pe etotal c_1 press c_1p vol
thermo       100
thermo_modify norm no

fix          1 all npt/body temp $T $T 0.01 x 1 1 0.1 y 1 1 0.1 couple xy
fix          1 all npt/body temp 1 $T 0.01 x 1 1 0.1 y 1 1 0.1 couple xy
fix          1 all npt/body temp 1 1 0.01 x 1 1 0.1 y 1 1 0.1 couple xy
run          200000
Generated 0 of 0 mixed pair_coeff terms from geometric mixing rule
Step          Temp          KinEng         PotEng         TotEng          c_1           Press           c_1p          Volume
0   1              195            0              195            0.66552901     0.11054422     0.11054422     1764
Averages over the last 1001 of 2001 rows, steps 100000 to 200000:
Temp KinEng PotEng TotEng c_1 Press c_1p Volume
0.999314 194.866 16.7557 211.622 1.00133 0.859857 0.999682 704.678
Loop time of 21.9864 on 4 procs for 200000 steps with 196 atoms

unfix 1

fix          1 all nve/body
dump mydump all custom 100 dump1.quat id type c_10[1] c_10[2] c_10[3] c_10[4] c_10[5] c_10[6] c_10[7]
fix 1rdf all ave/time 1 200000 200000 c_myRDF[*] file tmp1.rdf mode vector
run          200000
Generated 0 of 0 mixed pair_coeff terms from geometric mixing rule
Step          Temp          KinEng         PotEng         TotEng          c_1           Press           c_1p          Volume
200000   1.0675777      208.17766      14.555105      222.73276      1.115689       0.81393304     0.98672954     687.04643
Averages over the last 1001 of 2001 rows, steps 300000 to 400000:
Temp KinEng PotEng TotEng c_1 Press c_1p Volume
1.09124 212.791 21.1487 233.94 1.09318 1.02207 1.17855 687.046
Loop time of 35.6135 on 4 procs for 200000 steps with 196 atoms

unfix 1
undump mydump
unfix 1rdf

fix          1 all npt/body temp $T $T 0.01 x 1 3 0.1 y 1 3 0.1 couple xy
fix          1 all npt/body temp 1 $T 0.01 x 1 3 0.1 y 1 3 0.1 couple xy
fix          1 all npt/body temp 1 1 0.01 x 1 3 0.1 y 1 3 0.1 couple xy
run          200000
Generated 0 of 0 mixed pair_coeff terms from geometric mixing rule
Step          Temp          KinEng         PotEng         TotEng          c_1           Press           c_1p          Volume
400000   1.0918075      212.90246      24.26451       237.16697      1.0825504      1.1688467      1.3206338      687.04643
Averages over the last 1001 of 2001 rows, steps 500000 to 600000:
Temp KinEng PotEng TotEng c_1 Press c_1p Volume
0.992188 193.477 41.3785 234.855 1.00085 2.30378 2.49917 510.944
Loop time of 29.6574 on 4 procs for 200000 steps with 196 atoms

unfix 1

fix          1 all nve/body
dump mydump all custom 100 dump2.quat id type c_10[1] c_10[2] c_10[3] c_10[4] c_10[5] c_10[6] c_10[7]
fix 1rdf all ave/time 1 200000 200000 c_myRDF[*] file tmp2.rdf mode vector
run          200000
Generated 0 of 0 mixed pair_coeff terms from geometric mixing rule
Step          Temp          KinEng         PotEng         TotEng          c_1           Press           c_1p          Volume
600000   0.96812113     188.78362      51.23144       240.01506      0.95066424     2.8286878      3.0147071      482.53605
Averages over the last 1001 of 2001 rows, steps 700000 to 800000:
Temp KinEng PotEng TotEng c_1 Press c_1p Volume
0.967857 188.732 48.1118 236.844 0.961312 2.75454 2.94713 482.536
Loop time of 54.7652 on 4 procs for 200000 steps with 196 atoms

unfix 1
undump mydump
unfix 1rdf

fix          1 all npt/body temp $T $T 0.01 x 3 6 0.1 y 3 6 0.1 couple xy
fix          1 all npt/body temp 1 $T 0.01 x 3 6 0.1 y 3 6 0.1 couple xy
fix          1 all npt/body temp 1 1 0.01 x 3 6 0.1 y 3 6 0.1 couple xy
run          200000
Generated 0 of 0 mixed pair_coeff terms from geometric mixing rule
Step          Temp          KinEng         PotEng         TotEng          c_1           Press           c_1p          Volume
800000   1.0214686      199.18638      35.69448       234.88086      1.0036907      2.3729085      2.5695674      482.53605
Averages over the last 1001 of 2001 rows, steps 900000 to 1000000:
Temp KinEng PotEng TotEng c_1 Press c_1p Volume
1.00902 196.76 84.4497 281.209 0.99932 5.02124 5.24908 421.549
Loop time of 41.0332 on 4 procs for 200000 steps with 196 atoms

unfix 1

fix          1 all nve/body
dump mydump all custom 100 dump3.quat id type c_10[1] c_10[2] c_10[3] c_10[4] c_10[5] c_10[6] c_10[7]
fix 1rdf all ave/time 1 200000 200000 c_myRDF[*] file tmp3.rdf mode vector
run          200000
Generated 0 of 0 mixed pair_coeff terms from geometric mixing rule
Step          Temp          KinEng         PotEng         TotEng          c_1           Press           c_1p          Volume
1000000   0.98731345     192.52612      110.13784      302.66397      0.97661316     6.4552415      6.687576       402.95998
Averages over the last 1001 of 2001 rows, steps 1100000 to 1200000:
Temp KinEng PotEng TotEng c_1 Press c_1p Volume
1.04604 203.978 90.0381 294.016 1.04521 5.59761 5.8514 402.96
Loop time of 68.3494 on 4 procs for 200000 steps with 196 atoms

unfix 1
undump mydump
unfix 1rdf

fix          1 all npt/body temp $T $T 0.01 x 6 7 0.1 y 6 7 0.1 couple xy
fix          1 all npt/body temp 1 $T 0.01 x 6 7 0.1 y 6 7 0.1 couple xy
fix          1 all npt/body temp 1 1 0.01 x 6 7 0.1 y 6 7 0.1 couple xy
run          200000
Generated 0 of 0 mixed pair_coeff terms from geometric mixing rule
Step          Temp          KinEng         PotEng         TotEng          c_1           Press           c_1p          Volume
1200000   1.035666       201.95487      93.443186      295.39806      1.0335911      6.1868458      6.4372114      402.95998
Averages over the last 1001 of 2001 rows, steps 1300000 to 1400000:
Temp KinEng PotEng TotEng c_1 Press c_1p Volume
1.00634 196.236 99.4078 295.644 0.999992 6.49969 6.74903 388.101
Loop time of 47.8415 on 4 procs for 200000 steps with 196 atoms

unfix 1

fix          1 all nve/body
dump mydump all custom 100 dump4.quat id type c_10[1] c_10[2] c_10[3] c_10[4] c_10[5] c_10[6] c_10[7]
fix 1rdf all ave/time 1 200000 200000 c_myRDF[*] file tmp4.rdf mode vector
run          200000
Generated 0 of 0 mixed pair_coeff terms from geometric mixing rule
Step          Temp          KinEng         PotEng         TotEng          c_1           Press           c_1p          Volume
1400000   1.1012556      214.74484      117.99249      332.73733      1.0487659      7.1170573      7.3569755      385.72957
Averages over the last 1001 of 2001 rows, steps 1500000 to 1600000:
Temp KinEng PotEng TotEng c_1 Press c_1p Volume
1.08739 212.04 105.347 317.387 1.09192 6.74495 7.02467 385.73
Loop time of 72.1349 on 4 procs for 200000 steps with 196 atoms

unfix 1
undump mydump
unfix 1rdf

fix          1 all npt/body temp $T $T 0.01 x 7 8 0.1 y 7 8 0.1 couple xy
fix          1 all npt/body temp 1 $T 0.01 x 7 8 0.1 y 7 8 0.1 couple xy
fix          1 all npt/body temp 1 1 0.01 x 7 8 0.1 y 7 8 0.1 couple xy
run          200000
Generated 0 of 0 mixed pair_coeff terms from geometric mixing rule
Step          Temp          KinEng         PotEng         TotEng          c_1           Press           c_1p          Volume
1600000   1.0922442      212.98762      102.81928      315.80691      1.1005504      6.6913906      6.9752         385.72957
Averages over the last 1001 of 2001 rows, steps 1700000 to 1800000:
Temp KinEng PotEng TotEng c_1 Press c_1p Volume
0.989588 192.97 110.03 303 0.999009 7.48237 7.74927 373.68
Loop time of 50.7462 on 4 procs for 200000 steps with 196 atoms

unfix 1

fix          1 all nve/body
dump mydump all custom 100 dump5.quat id type c_10[1] c_10[2] c_10[3] c_10[4] c_10[5] c_10[6] c_10[7]
fix 1rdf all ave/time 1 200000 200000 c_myRDF[*] file tmp5.rdf mode vector
run          200000
Generated 0 of 0 mixed pair_coeff terms from geometric mixing rule
Step          Temp          KinEng         PotEng         TotEng          c_1           Press           c_1p          Volume
1800000   0.96674035     188.51437      102.93022      291.44459      0.94797399     7.1580169      7.3959109      375.13345
Averages over the last 1001 of 2001 rows, steps 1900000 to 2000000:
Temp KinEng PotEng TotEng c_1 Press c_1p Volume
0.947314 184.726 101.906 286.632 0.95147 7.07149 7.32221 375.133
Loop time of 74.7934 on 4 procs for 200000 steps with 196 atoms

unfix 1
undump mydump
unfix 1rdf

fix          1 all npt/body temp $T $T 0.01 x 8 10 0.1 y 8 10 0.1 couple xy
fix          1 all npt/body temp 1 $T 0.01 x 8 10 0.1 y 8 10 0.1 couple xy
fix          1 all npt/body temp 1 1 0.01 x 8 10 0.1 y 8 10 0.1 couple xy
run          200000
Generated 0 of 0 mixed pair_coeff terms from geometric mixing rule
Step          Temp          KinEng         PotEng         TotEng          c_1           Press           c_1p          Volume
2000000   0.94898511     185.0521       99.878822      284.93092      0.95838736     6.9749383      7.2301952      375.13345
Averages over the last 1001 of 2001 rows, steps 2100000 to 2200000:
Temp KinEng PotEng TotEng c_1 Press c_1p Volume
0.994933 194.012 132.76 326.772 0.998078 9.22712 9.49934 361.589
Loop time of 54.5087 on 4 procs for 200000 steps with 196 atoms

unfix 1

fix          1 all nve/body
dump mydump all custom 100 dump6.quat id type c_10[1] c_10[2] c_10[3] c_10[4] c_10[5] c_10[6] c_10[7]
fix 1rdf all ave/time 1 200000 200000 c_myRDF[*] file tmp6.rdf mode vector
run          200000
Generated 0 of 0 mixed pair_coeff terms from geometric mixing rule
Step          Temp          KinEng         PotEng         TotEng          c_1           Press           c_1p          Volume
2200000   0.9115419      177.75067      139.45301      317.20368      0.93626027     9.934633       10.204209      358.24253
Averages over the last 1001 of 2001 rows, steps 2300000 to 2400000:
Temp KinEng PotEng TotEng c_1 Press c_1p Volume
0.94848 184.954 133.081 318.035 0.958003 9.52081 9.78807 358.243
Loop time of 79.8481 on 4 procs for 200000 steps with 196 atoms

unfix 1
undump mydump
unfix 1rdf
