LAMMPS (2 Aug 2023 - Update 1)
# 3d rounded 3d

variable    r     index 5
variable    steps index 100000

units       lj
dimension   3
newton on

neighbor     1.0 bin
neigh_modify every 1 delay 0 check yes

atom_style  body rounded/polyhedron 1 20

read_data   data.3d
Reading data file ...
  orthogonal box = (-2.2 -2.2 -2.2) to (2.2 2.2 2.2)
  reading atoms ...
  1 atoms
  1 bodies

replicate   $r $r $r
replicate   5 $r $r
replicate   5 5 $r
replicate   5 5 5
Replication is creating a 5x5x5 = 125 times larger system...
  orthogonal box = (-2.2 -2.2 -2.2) to (19.8 19.8 19.8)
  125 atoms
  replicate CPU = 0.001 seconds

change_box all x final -11 11 y final -11 11 z final -11 11
Changing box ...
  orthogonal box = (-11 -2.2 -2.2) to (11 19.8 19.8)
  orthogonal box = (-11 -11 -2.2) to (11 11 19.8)
  orthogonal box = (-11 -11 -11) to (11 11 11)

velocity all create 3 9823 rot yes dist gaussian
set atom * quat/random 128
Setting atom values ...
  125 settings made for quat/random

variable cut_inner  equal 0.0
variable k_n        equal 100000
variable k_na       equal 0
variable c_n        equal 0
variable c_t        equal 0
variable mu         equal 0
variable A_ua       equal 1

pair_style body/rounded/polyhedron 0 0 0 1 0
pair_coeff * * 100000 0

comm_modify vel yes

timestep     0.0001

compute 1 all temp/body
compute 1p all pressure 1

thermo_style custom step temp ke pe etotal c_1 press c_1p c_1p[1] c_1p[2] c_1p[3] vol

thermo       100
thermo_modify norm no

compute 10 all property/atom x y z quatw quati quatj quatk
dump mydump all custom 100 dump.quat id c_10[1] c_10[2] c_10[3] c_10[4] c_10[5] c_10[6] c_10[7]

fix def all deform 200000 x scale 0.95 y scale 0.95 z scale 0.95

fix          1 all nvt/body temp 1.5 1.5 0.01

variable i loop 9

label loop_start
    run          100000
Generated 0 of 0 mixed pair_coeff terms from geometric mixing rule
Step          Temp          KinEng         PotEng         TotEng          c_1           Press           c_1p         c_1p[1]        c_1p[2]        c_1p[3]         Volume
0   3              558            0              558            1.4939759      0.034936138    0.034936138    0.030009013    0.03964281     0.035156592    10648
Averages over the last 501 of 1001 rows, steps 50000 to 100000:
Temp KinEng PotEng TotEng c_1 Press c_1p c_1p[1] c_1p[2] c_1p[3] Volume
1.43573 267.047 0.449062 267.496 1.4971 0.0363406 0.0546302 0.0512516 0.0540814 0.0585574 10648
Loop time of 946.213 on 4 procs for 100000 steps with 125 atoms

    run          100000
Generated 0 of 0 mixed pair_coeff terms from geometric mixing rule
Step          Temp          KinEng         PotEng         TotEng          c_1           Press           c_1p         c_1p[1]        c_1p[2]        c_1p[3]         Volume
100000   1.5026009      279.48377      0              279.48377      1.5498414      0.017498357    0.036242534    0.035973897    0.036520771    0.036232933    10648
Averages over the last 501 of 1001 rows, steps 150000 to 200000:
Temp KinEng PotEng TotEng c_1 Press c_1p c_1p[1] c_1p[2] c_1p[3] Volume
1.44836 269.396 0.560514 269.956 1.49969 0.039147 0.0573562 0.0581438 0.0551066 0.0588181 10645
Loop time of 931.165 on 4 procs for 100000 steps with 125 atoms

next i
jump SELF loop_start
    run          100000
Generated 0 of 0 mixed pair_coeff terms from geometric mixing rule
Step          Temp          KinEng         PotEng         TotEng          c_1           Press           c_1p         c_1p[1]        c_1p[2]        c_1p[3]         Volume
200000   1.5981753      297.26061      31385.857      31683.117      1.5778198      62.90825       62.929577      65.329063      78.317088      45.14258       9129.329
Averages over the last 501 of 1001 rows, steps 250000 to 300000:
Temp KinEng PotEng TotEng c_1 Press c_1p c_1p[1] c_1p[2] c_1p[3] Volume
1.56226 290.58 0.587339 291.167 1.50305 0.0497262 0.069502 0.0701716 0.067574 0.0707605 9129.33
Loop time of 1077.71 on 4 procs for 100000 steps with 125 atoms

    run          100000
Generated 0 of 0 mixed pair_coeff terms from geometric mixing rule
Step          Temp          KinEng         PotEng         TotEng          c_1           Press           c_1p         c_1p[1]        c_1p[2]        c_1p[3]         Volume
300000   1.4338632      266.69856      0              266.69856      1.4410505      0.019475587    0.039304266    0.040582408    0.03912592     0.03820447     9129.329
Averages over the last 501 of 1001 rows, steps 350000 to 400000:
Temp KinEng PotEng TotEng c_1 Press c_1p c_1p[1] c_1p[2] c_1p[3] Volume
1.54415 287.212 0.577986 287.79 1.49991 0.0502951 0.0702367 0.070369 0.0693722 0.0709688 9126.73
Loop time of 1054.97 on 4 procs for 100000 steps with 125 atoms

next i
jump SELF loop_start
    run          100000
Generated 0 of 0 mixed pair_coeff terms from geometric mixing rule
Step          Temp          KinEng         PotEng         TotEng          c_1           Press           c_1p         c_1p[1]        c_1p[2]        c_1p[3]         Volume
400000   1.6570326      308.20806      30160.635      30468.843      1.4392004      72.93174       72.951272      51.562863      84.023362      83.267591      7827.2585
Averages over the last 501 of 1001 rows, steps 450000 to 500000:
Temp KinEng PotEng TotEng c_1 Press c_1p c_1p[1] c_1p[2] c_1p[3] Volume
1.47881 275.059 0.723849 275.782 1.49782 0.0673038 0.0915248 0.0939235 0.090573 0.090078 7827.26
Loop time of 1320.49 on 4 procs for 100000 steps with 125 atoms

    run          100000
Generated 0 of 0 mixed pair_coeff terms from geometric mixing rule
Step          Temp          KinEng         PotEng         TotEng          c_1           Press           c_1p         c_1p[1]        c_1p[2]        c_1p[3]         Volume
500000   1.5697759      291.97831      3.4691239      295.44744      1.5312917      0.15625724     0.18010204     0.29346587     0.13316781     0.11367245     7827.2585
Averages over the last 501 of 1001 rows, steps 550000 to 600000:
Temp KinEng PotEng TotEng c_1 Press c_1p c_1p[1] c_1p[2] c_1p[3] Volume
1.49426 277.933 0.788107 278.721 1.49501 0.0685958 0.0924902 0.0907713 0.0928114 0.0938879 7825.03
Loop time of 1249.02 on 4 procs for 100000 steps with 125 atoms

next i
jump SELF loop_start
    run          100000
Generated 0 of 0 mixed pair_coeff terms from geometric mixing rule
Step          Temp          KinEng         PotEng         TotEng          c_1           Press           c_1p         c_1p[1]        c_1p[2]        c_1p[3]         Volume
600000   1.4403598      267.90691      26732.447      27000.354      1.4384695      84.911305      84.938064      82.752765      97.095752      74.965675      6710.8957
Averages over the last 501 of 1001 rows, steps 650000 to 700000:
Temp KinEng PotEng TotEng c_1 Press c_1p c_1p[1] c_1p[2] c_1p[3] Volume
1.52539 283.723 0.999521 284.723 1.4989 0.0954203 0.12285 0.120334 0.12359 0.124625 6710.9
Loop time of 1481.89 on 4 procs for 100000 steps with 125 atoms

    run          100000
Generated 0 of 0 mixed pair_coeff terms from geometric mixing rule
Step          Temp          KinEng         PotEng         TotEng          c_1           Press           c_1p         c_1p[1]        c_1p[2]        c_1p[3]         Volume
700000   1.6182138      300.98776      0.87204135     301.8598       1.5253793      0.11180421     0.13850123     0.061728847    0.19075605     0.1630188      6710.8957
Averages over the last 501 of 1001 rows, steps 750000 to 800000:
Temp KinEng PotEng TotEng c_1 Press c_1p c_1p[1] c_1p[2] c_1p[3] Volume
1.51867 282.472 1.00519 283.477 1.50292 0.0975954 0.125308 0.132908 0.123225 0.119791 6708.99
Loop time of 1459.01 on 4 procs for 100000 steps with 125 atoms

next i
jump SELF loop_start
    run          100000
Generated 0 of 0 mixed pair_coeff terms from geometric mixing rule
Step          Temp          KinEng         PotEng         TotEng          c_1           Press           c_1p         c_1p[1]        c_1p[2]        c_1p[3]         Volume
800000   1.3931053      259.11759      51053.667      51312.784      1.4617497      179.67848      179.71172      180.07501      192.64217      166.41798      5753.7542
Averages over the last 501 of 1001 rows, steps 850000 to 900000:
Temp KinEng PotEng TotEng c_1 Press c_1p c_1p[1] c_1p[2] c_1p[3] Volume
1.49575 278.21 1.46569 279.676 1.49938 0.147164 0.179816 0.181981 0.177194 0.180273 5753.75
Loop time of 1712.32 on 4 procs for 100000 steps with 125 atoms

    run          100000
Generated 0 of 0 mixed pair_coeff terms from geometric mixing rule
Step          Temp          KinEng         PotEng         TotEng          c_1           Press           c_1p         c_1p[1]        c_1p[2]        c_1p[3]         Volume
900000   1.43616        267.12577      3.3112855      270.43705      1.4486575      0.19264267     0.224384       0.07435884     0.44318042     0.15561276     5753.7542
Averages over the last 501 of 1001 rows, steps 950000 to 1000000:
Temp KinEng PotEng TotEng c_1 Press c_1p c_1p[1] c_1p[2] c_1p[3] Volume
1.4975 278.535 1.38501 279.92 1.49951 0.138033 0.170663 0.174528 0.169074 0.168387 5752.12
Loop time of 1735.99 on 4 procs for 100000 steps with 125 atoms

next i
jump SELF loop_start
    run          100000
Generated 0 of 0 mixed pair_coeff terms from geometric mixing rule
Step          Temp          KinEng         PotEng         TotEng          c_1           Press           c_1p         c_1p[1]        c_1p[2]        c_1p[3]         Volume
1000000   1.5520663      288.68433      60148.245      60436.929      1.4886195      242.19099      242.22711      187.10711      279.17129      260.40294      4933.125
Averages over the last 501 of 1001 rows, steps 1050000 to 1100000:
Temp KinEng PotEng TotEng c_1 Press c_1p c_1p[1] c_1p[2] c_1p[3] Volume
1.49333 277.76 1.93621 279.696 1.49988 0.212333 0.250503 0.25484 0.24436 0.25231 4933.12
Loop time of 2100.3 on 4 procs for 100000 steps with 125 atoms

    run          100000
Generated 0 of 0 mixed pair_coeff terms from geometric mixing rule
Step          Temp          KinEng         PotEng         TotEng          c_1           Press           c_1p         c_1p[1]        c_1p[2]        c_1p[3]         Volume
1100000   1.474433       274.24454      0.07706203     274.32161      1.459194       0.078646255    0.11523758     0.16024613     0.1148027      0.070663919    4933.125
Averages over the last 501 of 1001 rows, steps 1150000 to 1200000:
Temp KinEng PotEng TotEng c_1 Press c_1p c_1p[1] c_1p[2] c_1p[3] Volume
1.49764 278.562 2.01788 280.58 1.49871 0.223446 0.261462 0.26035 0.26046 0.263575 4931.72
Loop time of 2057.92 on 4 procs for 100000 steps with 125 atoms

next i
jump SELF loop_start
    run          100000
Generated 0 of 0 mixed pair_coeff terms from geometric mixing rule
Step          Temp          KinEng         PotEng         TotEng          c_1           Press           c_1p         c_1p[1]        c_1p[2]        c_1p[3]         Volume
1200000   1.6995044      316.10781      59284.08       59600.188      1.6205611      284.62239      284.66797      258.75808      321.51877      273.72705      4229.5381
Averages over the last 501 of 1001 rows, steps 1250000 to 1300000:
Temp KinEng PotEng TotEng c_1 Press c_1p c_1p[1] c_1p[2] c_1p[3] Volume
1.4972 278.479 2.97649 281.455 1.49955 0.338231 0.382617 0.381055 0.37792 0.388877 4229.54
Loop time of 2387.73 on 4 procs for 100000 steps with 125 atoms

    run          100000
Generated 0 of 0 mixed pair_coeff terms from geometric mixing rule
Step          Temp          KinEng         PotEng         TotEng          c_1           Press           c_1p         c_1p[1]        c_1p[2]        c_1p[3]         Volume
1300000   1.3831698      257.26957      1.2343746      258.50395      1.4424289      0.19784302     0.24220998     0.090868219    0.4181332      0.21762851     4229.5381
Averages over the last 501 of 1001 rows, steps 1350000 to 1400000:
Temp KinEng PotEng TotEng c_1 Press c_1p c_1p[1] c_1p[2] c_1p[3] Volume
1.50893 280.661 2.63762 283.299 1.50237 0.326039 0.370261 0.372605 0.374068 0.36411 4228.33
Loop time of 2439.93 on 4 procs for 100000 steps with 125 atoms

next i
jump SELF loop_start
    run          100000
Generated 0 of 0 mixed pair_coeff terms from geometric mixing rule
Step          Temp          KinEng         PotEng         TotEng          c_1           Press           c_1p         c_1p[1]        c_1p[2]        c_1p[3]         Volume
1400000   1.62269        301.82034      116523.8       116825.62      1.4993449      593.12033      593.1678       583.99716      643.83818      551.66806      3626.3002
Averages over the last 501 of 1001 rows, steps 1450000 to 1500000:
Temp KinEng PotEng TotEng c_1 Press c_1p c_1p[1] c_1p[2] c_1p[3] Volume
1.50125 279.233 3.94334 283.177 1.50078 0.531108 0.582825 0.61719 0.583903 0.547381 3626.3
Loop time of 3070.25 on 4 procs for 100000 steps with 125 atoms

    run          100000
Generated 0 of 0 mixed pair_coeff terms from geometric mixing rule
Step          Temp          KinEng         PotEng         TotEng          c_1           Press           c_1p         c_1p[1]        c_1p[2]        c_1p[3]         Volume
1500000   1.4641218      272.32665      11.459503      283.78615      1.5659068      1.1344802      1.1919381      1.2724038      0.81727955     1.486131       3626.3002
Averages over the last 501 of 1001 rows, steps 1550000 to 1600000:
Temp KinEng PotEng TotEng c_1 Press c_1p c_1p[1] c_1p[2] c_1p[3] Volume
1.50488 279.908 4.12264 284.031 1.49923 0.547264 0.598769 0.587441 0.605763 0.603103 3625.27
Loop time of 2967.49 on 4 procs for 100000 steps with 125 atoms

next i
jump SELF loop_start
    run          100000
Generated 0 of 0 mixed pair_coeff terms from geometric mixing rule
Step          Temp          KinEng         PotEng         TotEng          c_1           Press           c_1p         c_1p[1]        c_1p[2]        c_1p[3]         Volume
1600000   1.4577016      271.13249      151329.08      151600.21      1.5305659      977.51302      977.57747      991.33409      1017.2803      924.11801      3109.0991
Averages over the last 501 of 1001 rows, steps 1650000 to 1700000:
Temp KinEng PotEng TotEng c_1 Press c_1p c_1p[1] c_1p[2] c_1p[3] Volume
1.50624 280.16 6.18051 286.341 1.50106 0.909252 0.969394 0.915648 0.9891 1.00344 3109.1
Loop time of 3356.07 on 4 procs for 100000 steps with 125 atoms

    run          100000
Generated 0 of 0 mixed pair_coeff terms from geometric mixing rule
Step          Temp          KinEng         PotEng         TotEng          c_1           Press           c_1p         c_1p[1]        c_1p[2]        c_1p[3]         Volume
1700000   1.6380216      304.67202      3.6070527      308.27907      1.6124383      0.67521936     0.73902642     0.91165181     0.61513093     0.69029652     3109.0991
Averages over the last 501 of 1001 rows, steps 1750000 to 1800000:
Temp KinEng PotEng TotEng c_1 Press c_1p c_1p[1] c_1p[2] c_1p[3] Volume
1.49629 278.311 6.01441 284.325 1.50172 0.873635 0.934247 0.892356 0.94761 0.962775 3108.21
Loop time of 3046.85 on 4 procs for 100000 steps with 125 atoms

next i
jump SELF loop_start
