LAMMPS (2 Aug 2023 - Update 1)
# 3d rounded 3d

variable    r     index 5
variable    steps index 100000

units       lj
dimension   3
newton on

neighbor     1.0 bin
neigh_modify every 1 delay 0 check yes

atom_style  body rounded/polyhedron 1 20

read_data   data.3d
Reading data file ...
  orthogonal box = (-3.2 -3.2 -3.2) to (3.2 3.2 3.2)
  reading atoms ...
  1 atoms
  1 bodies

replicate   $r $r $r
replicate   5 $r $r
replicate   5 5 $r
replicate   5 5 5
Replication is creating a 5x5x5 = 125 times larger system...
  orthogonal box = (-3.2 -3.2 -3.2) to (28.8 28.8 28.8)
  125 atoms
  replicate CPU = 0.001 seconds

change_box all x final -16 16 y final -16 16 z final -16 16
Changing box ...
  orthogonal box = (-16 -3.2 -3.2) to (16 28.8 28.8)
  orthogonal box = (-16 -16 -3.2) to (16 16 28.8)
  orthogonal box = (-16 -16 -16) to (16 16 16)

velocity all create 3 5165 rot yes dist gaussian
set atom * quat/random 834
Setting atom values ...
  125 settings made for quat/random

variable cut_inner  equal 0.0
variable k_n        equal 100000
variable k_na       equal 0
variable c_n        equal 0
variable c_t        equal 0
variable mu         equal 0
variable A_ua       equal 1

pair_style body/rounded/polyhedron 0 0 0 1 0
pair_coeff * * 100000 0

comm_modify vel yes

timestep     0.0001

compute 1 all temp/body
compute 1p all pressure 1

thermo_style custom step temp ke pe etotal c_1 press c_1p c_1p[1] c_1p[2] c_1p[3] vol

thermo       100
thermo_modify norm no

compute 10 all property/atom x y z quatw quati quatj quatk
dump mydump all custom 100 dump.quat id c_10[1] c_10[2] c_10[3] c_10[4] c_10[5] c_10[6] c_10[7]

# dump	     2 all image 1000 image.*.jpg type type # 	     zoom 1.5 adiam 1.5 body type 0 0 view 75 15

fix def all deform 200000 x scale 0.952 y scale 0.952 z scale 0.952

fix          1 all nvt/body temp 1.5 1.5 0.01

variable i loop 9

label loop_start
    run          100000
Generated 0 of 0 mixed pair_coeff terms from geometric mixing rule
Step          Temp          KinEng         PotEng         TotEng          c_1           Press           c_1p         c_1p[1]        c_1p[2]        c_1p[3]         Volume
0   3              558            39495.453      40053.453      1.4939759      6.8326022      6.8326022      11.444672     -4.8507926      13.903927      32768
Averages over the last 501 of 1001 rows, steps 50000 to 100000:
Temp KinEng PotEng TotEng c_1 Press c_1p c_1p[1] c_1p[2] c_1p[3] Volume
1.46881 273.199 0.460355 273.66 1.49906 0.0145318 0.0203647 0.0205019 0.0197216 0.0208706 32768
Loop time of 754.18 on 4 procs for 100000 steps with 125 atoms

    run          100000
Generated 0 of 0 mixed pair_coeff terms from geometric mixing rule
Step          Temp          KinEng         PotEng         TotEng          c_1           Press           c_1p         c_1p[1]        c_1p[2]        c_1p[3]         Volume
100000   1.6113685      299.71454      0              299.71454      1.5355869      0.0060977079   0.011668736    0.011561456    0.012085077    0.011359674    32768
Averages over the last 501 of 1001 rows, steps 150000 to 200000:
Temp KinEng PotEng TotEng c_1 Press c_1p c_1p[1] c_1p[2] c_1p[3] Volume
1.50228 279.424 0.68171 280.105 1.50129 0.0175043 0.0232295 0.0235101 0.0227092 0.0234692 32759
Loop time of 724.98 on 4 procs for 100000 steps with 125 atoms

next i
jump SELF loop_start
    run          100000
Generated 0 of 0 mixed pair_coeff terms from geometric mixing rule
Step          Temp          KinEng         PotEng         TotEng          c_1           Press           c_1p         c_1p[1]        c_1p[2]        c_1p[3]         Volume
200000   1.3634547      253.60258      39094.203      39347.805      1.5215717      33.887928      33.895349      44.299713      24.737074      32.649259      28272.277
Averages over the last 501 of 1001 rows, steps 250000 to 300000:
Temp KinEng PotEng TotEng c_1 Press c_1p c_1p[1] c_1p[2] c_1p[3] Volume
1.4526 270.184 0.681976 270.866 1.50073 0.0218666 0.0287129 0.0298482 0.0285453 0.0277452 28272.3
Loop time of 807.91 on 4 procs for 100000 steps with 125 atoms

    run          100000
Generated 0 of 0 mixed pair_coeff terms from geometric mixing rule
Step          Temp          KinEng         PotEng         TotEng          c_1           Press           c_1p         c_1p[1]        c_1p[2]        c_1p[3]         Volume
300000   1.4372498      267.32847      0.68351821     268.01198      1.5420559      0.028142916    0.035420468    0.035301565    0.059836322    0.011123517    28272.277
Averages over the last 501 of 1001 rows, steps 350000 to 400000:
Temp KinEng PotEng TotEng c_1 Press c_1p c_1p[1] c_1p[2] c_1p[3] Volume
1.54358 287.106 0.634925 287.741 1.5017 0.0205122 0.0269701 0.0279775 0.0257496 0.0271833 28264.5
Loop time of 778.228 on 4 procs for 100000 steps with 125 atoms

next i
jump SELF loop_start
    run          100000
Generated 0 of 0 mixed pair_coeff terms from geometric mixing rule
Step          Temp          KinEng         PotEng         TotEng          c_1           Press           c_1p         c_1p[1]        c_1p[2]        c_1p[3]         Volume
400000   1.5397666      286.39659      35637.457      35923.854      1.5348095      27.239218      27.247058      20.288421      24.559767      36.892984      24393.36
Averages over the last 501 of 1001 rows, steps 450000 to 500000:
Temp KinEng PotEng TotEng c_1 Press c_1p c_1p[1] c_1p[2] c_1p[3] Volume
1.5705 292.113 0.820326 292.933 1.50164 0.0288416 0.0361865 0.0387468 0.0355623 0.0342503 24393.4
Loop time of 925.433 on 4 procs for 100000 steps with 125 atoms

    run          100000
Generated 0 of 0 mixed pair_coeff terms from geometric mixing rule
Step          Temp          KinEng         PotEng         TotEng          c_1           Press           c_1p         c_1p[1]        c_1p[2]        c_1p[3]         Volume
500000   1.6458092      306.12051      0.5405269      306.66104      1.4748388      0.023143405    0.029831885    0.051125701    0.023598221    0.014771734    24393.36
Averages over the last 501 of 1001 rows, steps 550000 to 600000:
Temp KinEng PotEng TotEng c_1 Press c_1p c_1p[1] c_1p[2] c_1p[3] Volume
1.52233 283.153 0.915766 284.068 1.50408 0.0297738 0.0373909 0.0378192 0.0378476 0.0365061 24386.7
Loop time of 889.948 on 4 procs for 100000 steps with 125 atoms

next i
jump SELF loop_start
    run          100000
Generated 0 of 0 mixed pair_coeff terms from geometric mixing rule
Step          Temp          KinEng         PotEng         TotEng          c_1           Press           c_1p         c_1p[1]        c_1p[2]        c_1p[3]         Volume
600000   1.5131269      281.4416       48463.164      48744.605      1.4934759      42.7765        42.785255      42.973424      33.311912      52.070427      21046.625
Averages over the last 501 of 1001 rows, steps 650000 to 700000:
Temp KinEng PotEng TotEng c_1 Press c_1p c_1p[1] c_1p[2] c_1p[3] Volume
1.50873 280.624 1.119 281.743 1.50099 0.0402767 0.0491458 0.0496891 0.0493927 0.0483556 21046.6
Loop time of 1061.9 on 4 procs for 100000 steps with 125 atoms

    run          100000
Generated 0 of 0 mixed pair_coeff terms from geometric mixing rule
Step          Temp          KinEng         PotEng         TotEng          c_1           Press           c_1p         c_1p[1]        c_1p[2]        c_1p[3]         Volume
700000   1.2781154      237.72947      0.14364381     237.87311      1.4661495      0.018213458    0.028029042    0.020894819    0.018640109    0.044552197    21046.625
Averages over the last 501 of 1001 rows, steps 750000 to 800000:
Temp KinEng PotEng TotEng c_1 Press c_1p c_1p[1] c_1p[2] c_1p[3] Volume
1.53044 284.661 1.23973 285.901 1.50244 0.0434853 0.0522469 0.0517051 0.0561024 0.0489332 21040.9
Loop time of 1031.04 on 4 procs for 100000 steps with 125 atoms

next i
jump SELF loop_start
    run          100000
Generated 0 of 0 mixed pair_coeff terms from geometric mixing rule
Step          Temp          KinEng         PotEng         TotEng          c_1           Press           c_1p         c_1p[1]        c_1p[2]        c_1p[3]         Volume
800000   1.52321        283.31705      68507.311      68790.628      1.6257238      70.522196      70.534087      54.43493       67.265622      89.90171       18159.058
Averages over the last 501 of 1001 rows, steps 850000 to 900000:
Temp KinEng PotEng TotEng c_1 Press c_1p c_1p[1] c_1p[2] c_1p[3] Volume
1.48109 275.483 1.3671 276.85 1.49978 0.0573551 0.0678066 0.0673012 0.0685198 0.0675989 18159.1
Loop time of 1148.46 on 4 procs for 100000 steps with 125 atoms

    run          100000
Generated 0 of 0 mixed pair_coeff terms from geometric mixing rule
Step          Temp          KinEng         PotEng         TotEng          c_1           Press           c_1p         c_1p[1]        c_1p[2]        c_1p[3]         Volume
900000   1.4552712      270.68044      2.5191263      273.19956      1.4322641      0.074658205    0.084360258    0.063840726    0.14465905     0.044580995    18159.058
Averages over the last 501 of 1001 rows, steps 950000 to 1000000:
Temp KinEng PotEng TotEng c_1 Press c_1p c_1p[1] c_1p[2] c_1p[3] Volume
1.49053 277.238 1.57547 278.814 1.49909 0.0621824 0.0725631 0.071311 0.0712583 0.07512 18154.1
Loop time of 1182.33 on 4 procs for 100000 steps with 125 atoms

next i
jump SELF loop_start
    run          100000
Generated 0 of 0 mixed pair_coeff terms from geometric mixing rule
Step          Temp          KinEng         PotEng         TotEng          c_1           Press           c_1p         c_1p[1]        c_1p[2]        c_1p[3]         Volume
1000000   1.4363552      267.16207      105440.7       105707.87      1.4242888      134.42086      134.43213      164.59646      105.11798      133.58195      15667.661
Averages over the last 501 of 1001 rows, steps 1050000 to 1100000:
Temp KinEng PotEng TotEng c_1 Press c_1p c_1p[1] c_1p[2] c_1p[3] Volume
1.4892 276.991 2.00403 278.995 1.50094 0.0865692 0.098637 0.101026 0.0980148 0.0968699 15667.7
Loop time of 1341.86 on 4 procs for 100000 steps with 125 atoms

    run          100000
Generated 0 of 0 mixed pair_coeff terms from geometric mixing rule
Step          Temp          KinEng         PotEng         TotEng          c_1           Press           c_1p         c_1p[1]        c_1p[2]        c_1p[3]         Volume
1100000   1.7645946      328.2146       1.6142826      329.82888      1.757334       0.080112076    0.094075006    0.054427868    0.10687237     0.12092478     15667.661
Averages over the last 501 of 1001 rows, steps 1150000 to 1200000:
Temp KinEng PotEng TotEng c_1 Press c_1p c_1p[1] c_1p[2] c_1p[3] Volume
1.46781 273.013 2.29034 275.303 1.49971 0.0946858 0.106907 0.10703 0.107607 0.106083 15663.4
Loop time of 1337.65 on 4 procs for 100000 steps with 125 atoms

next i
jump SELF loop_start
    run          100000
Generated 0 of 0 mixed pair_coeff terms from geometric mixing rule
Step          Temp          KinEng         PotEng         TotEng          c_1           Press           c_1p         c_1p[1]        c_1p[2]        c_1p[3]         Volume
1200000   1.6675008      310.15515      140884.52      141194.68      1.4999911      180.98302      180.99535      134.00467      261.53525      147.44613      13518.08
Averages over the last 501 of 1001 rows, steps 1250000 to 1300000:
Temp KinEng PotEng TotEng c_1 Press c_1p c_1p[1] c_1p[2] c_1p[3] Volume
1.53129 284.819 2.99181 287.811 1.50117 0.137738 0.151343 0.156473 0.150926 0.146629 13518.1
Loop time of 1501.9 on 4 procs for 100000 steps with 125 atoms

    run          100000
Generated 0 of 0 mixed pair_coeff terms from geometric mixing rule
Step          Temp          KinEng         PotEng         TotEng          c_1           Press           c_1p         c_1p[1]        c_1p[2]        c_1p[3]         Volume
1300000   1.518697       282.47764      0.51920033     282.99685      1.5260888      0.069189863    0.083369221    0.09576296     0.099263653    0.055081049    13518.08
Averages over the last 501 of 1001 rows, steps 1350000 to 1400000:
Temp KinEng PotEng TotEng c_1 Press c_1p c_1p[1] c_1p[2] c_1p[3] Volume
1.50721 280.341 2.8508 283.192 1.5024 0.134927 0.14878 0.147771 0.151172 0.147396 13514.4
Loop time of 1548.88 on 4 procs for 100000 steps with 125 atoms

next i
jump SELF loop_start
    run          100000
Generated 0 of 0 mixed pair_coeff terms from geometric mixing rule
Step          Temp          KinEng         PotEng         TotEng          c_1           Press           c_1p         c_1p[1]        c_1p[2]        c_1p[3]         Volume
1400000   1.4841675      276.05516      193344.28      193620.34      1.5430736      281.06786      281.08502      301.54428      303.9882       237.72258      11663.418
Averages over the last 501 of 1001 rows, steps 1450000 to 1500000:
Temp KinEng PotEng TotEng c_1 Press c_1p c_1p[1] c_1p[2] c_1p[3] Volume
1.51712 282.184 3.84157 286.026 1.49989 0.207345 0.223236 0.22394 0.22433 0.221439 11663.4
Loop time of 1788.06 on 4 procs for 100000 steps with 125 atoms

    run          100000
Generated 0 of 0 mixed pair_coeff terms from geometric mixing rule
Step          Temp          KinEng         PotEng         TotEng          c_1           Press           c_1p         c_1p[1]        c_1p[2]        c_1p[3]         Volume
1500000   1.2671019      235.68096      3.3604975      239.04146      1.3397232      0.1355113      0.15064155     0.080496086    0.12810923     0.24331933     11663.418
Averages over the last 501 of 1001 rows, steps 1550000 to 1600000:
Temp KinEng PotEng TotEng c_1 Press c_1p c_1p[1] c_1p[2] c_1p[3] Volume
1.51255 281.333 3.84988 285.183 1.50139 0.209075 0.225052 0.221123 0.222974 0.231059 11660.2
Loop time of 1779.08 on 4 procs for 100000 steps with 125 atoms

next i
jump SELF loop_start
    run          100000
Generated 0 of 0 mixed pair_coeff terms from geometric mixing rule
Step          Temp          KinEng         PotEng         TotEng          c_1           Press           c_1p         c_1p[1]        c_1p[2]        c_1p[3]         Volume
1600000   1.4255218      265.14706      225464.88      225730.02      1.473651       427.03731      427.0562       449.91476      431.17997      400.07389      10063.214
Averages over the last 501 of 1001 rows, steps 1650000 to 1700000:
Temp KinEng PotEng TotEng c_1 Press c_1p c_1p[1] c_1p[2] c_1p[3] Volume
1.49844 278.709 5.11877 283.828 1.49888 0.302245 0.320868 0.322267 0.325405 0.314933 10063.2
Loop time of 2047.51 on 4 procs for 100000 steps with 125 atoms

    run          100000
Generated 0 of 0 mixed pair_coeff terms from geometric mixing rule
Step          Temp          KinEng         PotEng         TotEng          c_1           Press           c_1p         c_1p[1]        c_1p[2]        c_1p[3]         Volume
1700000   1.5982712      297.27844      10.144701      307.42314      1.6341641      0.43304302     0.45378403     0.33843333     0.49278021     0.53013855     10063.214
Averages over the last 501 of 1001 rows, steps 1750000 to 1800000:
Temp KinEng PotEng TotEng c_1 Press c_1p c_1p[1] c_1p[2] c_1p[3] Volume
1.49591 278.24 5.11318 283.353 1.50155 0.291097 0.309824 0.323414 0.298588 0.30747 10060.5
Loop time of 2019.21 on 4 procs for 100000 steps with 125 atoms

next i
jump SELF loop_start
