LAMMPS (2 Aug 2023 - Update 1)
# 2d rounded polygon bodies

variable    r     index 7
variable    steps index 200000
variable    T     index 1
variable    P     index 0.1

include ./seed.lammps
variable    seed  index 18928

units       lj
dimension   2

atom_style  body rounded/polygon 1 6
atom_modify map array
read_data   data.squares
Reading data file ...
  orthogonal box = (0 0 -0.5) to (6 6 0.5)
  reading atoms ...
  4 atoms
  4 bodies

replicate   $r $r 1
replicate   7 $r 1
replicate   7 7 1
Replication is creating a 7x7x1 = 49 times larger system...
  orthogonal box = (0 0 -0.5) to (42 42 0.5)
  196 atoms
  replicate CPU = 0.001 seconds
change_box all x final -21.0 21.0 y final -21.0 21.0
Changing box ...
  orthogonal box = (-21 0 -0.5) to (21 42 0.5)
  orthogonal box = (-21 -21 -0.5) to (21 21 0.5)

variable cut_inner  equal 0.0
variable k_n        equal 300
variable k_na       equal 0
variable c_n        equal 0
variable c_t        equal 0
variable mu         equal 0.0
variable delta_ua   equal 1.0

pair_style body/rounded/polygon 0 0 0 1 0
pair_coeff * * 300 0

comm_modify vel yes cutoff 11

neighbor     1 bin
neigh_modify every 1 delay 0 check yes

timestep     0.0001

fix          2 all enforce2d

# minimize 0.0 0 1000 100000

compute 10 all property/atom x y z quatw quati quatj quatk
dump mydump0 all custom 100 dump.quat id type c_10[1] c_10[2] c_10[3] c_10[4] c_10[5] c_10[6] c_10[7]
compute myRDF all rdf 1000 cutoff 10.0
compute 1 all temp/body
compute 1p all pressure 1
velocity    all create 1 18928 dist gaussian mom yes rot yes

thermo_style custom step temp ke pe etotal c_1 press c_1p vol
thermo       100
thermo_modify norm no

fix          1 all npt/body temp $T $T 0.01 x 1 1 0.1 y 1 1 0.1 couple xy
fix          1 all npt/body temp 1 $T 0.01 x 1 1 0.1 y 1 1 0.1 couple xy
fix          1 all npt/body temp 1 1 0.01 x 1 1 0.1 y 1 1 0.1 couple xy
run          200000
Generated 0 of 0 mixed pair_coeff terms from geometric mixing rule
Step          Temp          KinEng         PotEng         TotEng          c_1           Press           c_1p          Volume
0   1              195            0              195            0.66552901     0.11054422     0.11054422     1764
Averages over the last 1001 of 2001 rows, steps 100000 to 200000:
Temp KinEng PotEng TotEng c_1 Press c_1p Volume
1.00333 195.649 19.4911 215.14 0.999893 0.865936 0.999408 729.088
Loop time of 28.0977 on 4 procs for 200000 steps with 196 atoms

unfix 1

fix          1 all nve/body
dump mydump all custom 100 dump1.quat id type c_10[1] c_10[2] c_10[3] c_10[4] c_10[5] c_10[6] c_10[7]
fix 1rdf all ave/time 1 200000 200000 c_myRDF[*] file tmp1.rdf mode vector
run          200000
Generated 0 of 0 mixed pair_coeff terms from geometric mixing rule
Step          Temp          KinEng         PotEng         TotEng          c_1           Press           c_1p          Volume
200000   1.0215124      199.19492      13.46352       212.65844      1.0065082      0.77969974     0.91269201     719.68081
Averages over the last 1001 of 2001 rows, steps 300000 to 400000:
Temp KinEng PotEng TotEng c_1 Press c_1p Volume
0.972611 189.659 19.5969 209.256 0.985575 0.876203 1.01392 719.681
Loop time of 47.71 on 4 procs for 200000 steps with 196 atoms

unfix 1
undump mydump
unfix 1rdf

fix          1 all npt/body temp $T $T 0.01 x 1 3 0.1 y 1 3 0.1 couple xy
fix          1 all npt/body temp 1 $T 0.01 x 1 3 0.1 y 1 3 0.1 couple xy
fix          1 all npt/body temp 1 1 0.01 x 1 3 0.1 y 1 3 0.1 couple xy
run          200000
Generated 0 of 0 mixed pair_coeff terms from geometric mixing rule
Step          Temp          KinEng         PotEng         TotEng          c_1           Press           c_1p          Volume
400000   0.8646416      168.60511      28.909162      197.51427      0.95379282     1.0999366      1.2539718      719.68081
Averages over the last 1001 of 2001 rows, steps 500000 to 600000:
Temp KinEng PotEng TotEng c_1 Press c_1p Volume
0.995439 194.111 47.8907 242.001 1.0018 2.31002 2.49897 526.736
Loop time of 34.5066 on 4 procs for 200000 steps with 196 atoms

unfix 1

fix          1 all nve/body
dump mydump all custom 100 dump2.quat id type c_10[1] c_10[2] c_10[3] c_10[4] c_10[5] c_10[6] c_10[7]
fix 1rdf all ave/time 1 200000 200000 c_myRDF[*] file tmp2.rdf mode vector
run          200000
Generated 0 of 0 mixed pair_coeff terms from geometric mixing rule
Step          Temp          KinEng         PotEng         TotEng          c_1           Press           c_1p          Volume
600000   0.97009144     189.16783      63.045484      252.21332      0.9707078      2.8632953      3.0529569      502.20782
Averages over the last 1001 of 2001 rows, steps 700000 to 800000:
Temp KinEng PotEng TotEng c_1 Press c_1p Volume
0.998035 194.617 54.8014 249.418 0.998845 2.68601 2.88123 502.208
Loop time of 66.121 on 4 procs for 200000 steps with 196 atoms

unfix 1
undump mydump
unfix 1rdf

fix          1 all npt/body temp $T $T 0.01 x 3 6 0.1 y 3 6 0.1 couple xy
fix          1 all npt/body temp 1 $T 0.01 x 3 6 0.1 y 3 6 0.1 couple xy
fix          1 all npt/body temp 1 1 0.01 x 3 6 0.1 y 3 6 0.1 couple xy
run          200000
Generated 0 of 0 mixed pair_coeff terms from geometric mixing rule
Step          Temp          KinEng         PotEng         TotEng          c_1           Press           c_1p          Volume
800000   0.93658351     182.63378      66.640386      249.27417      0.95843864     2.9100901      3.1056042      502.20782
Averages over the last 1001 of 2001 rows, steps 900000 to 1000000:
Temp KinEng PotEng TotEng c_1 Press c_1p Volume
1.00088 195.171 98.722 293.893 0.999703 5.02366 5.24917 433.622
Loop time of 50.3423 on 4 procs for 200000 steps with 196 atoms

unfix 1

fix          1 all nve/body
dump mydump all custom 100 dump3.quat id type c_10[1] c_10[2] c_10[3] c_10[4] c_10[5] c_10[6] c_10[7]
fix 1rdf all ave/time 1 200000 200000 c_myRDF[*] file tmp3.rdf mode vector
run          200000
Generated 0 of 0 mixed pair_coeff terms from geometric mixing rule
Step          Temp          KinEng         PotEng         TotEng          c_1           Press           c_1p          Volume
1000000   1.0524792      205.23344      122.97285      328.20628      1.0436867      6.1307101      6.3675763      424.57201
Averages over the last 1001 of 2001 rows, steps 1100000 to 1200000:
Temp KinEng PotEng TotEng c_1 Press c_1p Volume
1.0699 208.631 115.481 324.112 1.06926 5.74538 5.99189 424.572
Loop time of 87.3378 on 4 procs for 200000 steps with 196 atoms

unfix 1
undump mydump
unfix 1rdf

fix          1 all npt/body temp $T $T 0.01 x 6 7 0.1 y 6 7 0.1 couple xy
fix          1 all npt/body temp 1 $T 0.01 x 6 7 0.1 y 6 7 0.1 couple xy
fix          1 all npt/body temp 1 1 0.01 x 6 7 0.1 y 6 7 0.1 couple xy
run          200000
Generated 0 of 0 mixed pair_coeff terms from geometric mixing rule
Step          Temp          KinEng         PotEng         TotEng          c_1           Press           c_1p          Volume
1200000   1.1129608      217.02736      111.36061      328.38797      1.0833203      5.6092684      5.8457077      424.57201
Averages over the last 1001 of 2001 rows, steps 1300000 to 1400000:
Temp KinEng PotEng TotEng c_1 Press c_1p Volume
1.00466 195.908 123.399 319.307 0.999766 6.51085 6.74902 407.372
Loop time of 59.8573 on 4 procs for 200000 steps with 196 atoms

unfix 1

fix          1 all nve/body
dump mydump all custom 100 dump4.quat id type c_10[1] c_10[2] c_10[3] c_10[4] c_10[5] c_10[6] c_10[7]
fix 1rdf all ave/time 1 200000 200000 c_myRDF[*] file tmp4.rdf mode vector
run          200000
Generated 0 of 0 mixed pair_coeff terms from geometric mixing rule
Step          Temp          KinEng         PotEng         TotEng          c_1           Press           c_1p          Volume
1400000   0.98422206     191.9233       138.73081      330.65411      0.97309181     7.0164627      7.2460175      405.97094
Averages over the last 1001 of 2001 rows, steps 1500000 to 1600000:
Temp KinEng PotEng TotEng c_1 Press c_1p Volume
1.01262 197.46 126.443 323.903 1.01503 6.62725 6.87344 405.971
Loop time of 93.6007 on 4 procs for 200000 steps with 196 atoms

unfix 1
undump mydump
unfix 1rdf

fix          1 all npt/body temp $T $T 0.01 x 7 8 0.1 y 7 8 0.1 couple xy
fix          1 all npt/body temp 1 $T 0.01 x 7 8 0.1 y 7 8 0.1 couple xy
fix          1 all npt/body temp 1 1 0.01 x 7 8 0.1 y 7 8 0.1 couple xy
run          200000
Generated 0 of 0 mixed pair_coeff terms from geometric mixing rule
Step          Temp          KinEng         PotEng         TotEng          c_1           Press           c_1p          Volume
1600000   0.98253601     191.59452      136.35854      327.95306      0.98119074     6.9072409      7.1434508      405.97094
Averages over the last 1001 of 2001 rows, steps 1700000 to 1800000:
Temp KinEng PotEng TotEng c_1 Press c_1p Volume
1.00097 195.188 134.926 330.115 1.00048 7.49697 7.74835 389.678
Loop time of 63.8775 on 4 procs for 200000 steps with 196 atoms

unfix 1

fix          1 all nve/body
dump mydump all custom 100 dump5.quat id type c_10[1] c_10[2] c_10[3] c_10[4] c_10[5] c_10[6] c_10[7]
fix 1rdf all ave/time 1 200000 200000 c_myRDF[*] file tmp5.rdf mode vector
run          200000
Generated 0 of 0 mixed pair_coeff terms from geometric mixing rule
Step          Temp          KinEng         PotEng         TotEng          c_1           Press           c_1p          Volume
1800000   1.1080429      216.06836      127.94308      344.01144      1.1074877      7.7568086      8.0401113      382.71985
Averages over the last 1001 of 2001 rows, steps 1900000 to 2000000:
Temp KinEng PotEng TotEng c_1 Press c_1p Volume
1.03535 201.894 148.882 350.776 1.03603 8.25901 8.52464 382.72
Loop time of 99.4065 on 4 procs for 200000 steps with 196 atoms

unfix 1
undump mydump
unfix 1rdf

fix          1 all npt/body temp $T $T 0.01 x 8 10 0.1 y 8 10 0.1 couple xy
fix          1 all npt/body temp 1 $T 0.01 x 8 10 0.1 y 8 10 0.1 couple xy
fix          1 all npt/body temp 1 1 0.01 x 8 10 0.1 y 8 10 0.1 couple xy
run          200000
Generated 0 of 0 mixed pair_coeff terms from geometric mixing rule
Step          Temp          KinEng         PotEng         TotEng          c_1           Press           c_1p          Volume
2000000   0.97054041     189.25538      159.41235      348.66773      1.0000858      8.7726063      9.0437439      382.71985
Averages over the last 1001 of 2001 rows, steps 2100000 to 2200000:
Temp KinEng PotEng TotEng c_1 Press c_1p Volume
1.00211 195.411 157.47 352.881 0.998516 9.23497 9.49738 370.263
Loop time of 67.7326 on 4 procs for 200000 steps with 196 atoms

unfix 1

fix          1 all nve/body
dump mydump all custom 100 dump6.quat id type c_10[1] c_10[2] c_10[3] c_10[4] c_10[5] c_10[6] c_10[7]
fix 1rdf all ave/time 1 200000 200000 c_myRDF[*] file tmp6.rdf mode vector
run          200000
Generated 0 of 0 mixed pair_coeff terms from geometric mixing rule
Step          Temp          KinEng         PotEng         TotEng          c_1           Press           c_1p          Volume
2200000   1.0236323      199.6083       166.29314      365.90143      1.0618199      9.3208289      9.6220364      370.19321
Averages over the last 1001 of 2001 rows, steps 2300000 to 2400000:
Temp KinEng PotEng TotEng c_1 Press c_1p Volume
1.06993 208.637 164.068 372.705 1.06942 9.40037 9.6832 370.193
Loop time of 103.67 on 4 procs for 200000 steps with 196 atoms

unfix 1
undump mydump
unfix 1rdf
